mol_0


 47 50  0  0  0  0  0  0  0  0999 V2000
   11.1560   30.3119   39.6916 C   0  0  0  0  0  0  0  0  0  0  0  0
   10.0381   29.8723   39.2186 N   0  0  0  0  0  0  0  0  0  0  0  0
    9.3088   30.3342   37.9828 C   0  0  0  0  0  0  0  0  0  0  0  0
    7.8774   29.7912   38.1676 C   0  0  0  0  0  0  0  0  0  0  0  0
    8.1141   28.6195   39.0814 C   0  0  0  0  0  0  0  0  0  0  0  0
    7.2827   27.5275   39.3544 C   0  0  0  0  0  0  0  0  0  0  0  0
    7.8194   26.4515   40.0717 C   0  0  0  0  0  0  0  0  0  0  0  0
    9.1756   26.4876   40.3977 C   0  0  0  0  0  0  0  0  0  0  0  0
    9.9488   27.6285   40.2955 C   0  0  0  0  0  0  0  0  0  0  0  0
    9.3935   28.7002   39.6348 C   0  0  0  0  0  0  0  0  0  0  0  0
    9.8623   25.3413   40.6640 O   0  0  0  0  0  0  0  0  0  0  0  0
    9.5368   24.6954   40.0060 H   0  0  0  0  0  0  0  0  0  0  0  0
   13.5711   31.7614   40.7389 C   0  0  0  0  0  0  0  0  0  0  0  0
   14.6785   32.5561   41.4653 C   0  0  0  0  0  0  0  0  0  0  0  0
   15.1114   31.9411   42.7417 N   0  0  0  0  0  0  0  0  0  0  0  0
   14.4599   30.8621   43.3225 C   0  0  0  0  0  0  0  0  0  0  0  0
   13.3982   30.2569   42.7726 C   0  0  0  0  0  0  0  0  0  0  0  0
   12.8489   30.6592   41.4893 C   0  0  0  0  0  0  0  0  0  0  0  0
   11.7390   30.0449   41.0363 C   0  0  0  0  0  0  0  0  0  0  0  0
   15.3823   32.6678   43.4190 H   0  0  0  0  0  0  0  0  0  0  0  0
   14.9306   30.3197   44.6487 C   0  0  0  0  0  0  0  0  0  0  0  0
   14.2162   29.7897   45.4871 O   0  0  0  0  0  0  0  0  0  0  0  0
   16.2666   30.4636   44.7793 O   0  0  0  0  0  0  0  0  0  0  0  0
   16.6549   30.7609   43.9324 H   0  0  0  0  0  0  0  0  0  0  0  0
   14.3196   34.0322   41.7312 C   0  0  0  0  0  0  0  0  0  0  0  0
   14.3785   34.5191   42.8572 O   0  0  0  0  0  0  0  0  0  0  0  0
   14.0516   34.7935   40.6517 O   0  0  0  0  0  0  0  0  0  0  0  0
   14.0229   34.3705   39.7725 H   0  0  0  0  0  0  0  0  0  0  0  0
    9.3498   31.8446   37.7753 C   0  0  0  0  0  0  0  0  0  0  0  0
   10.1547   32.2681   36.8998 O   0  0  0  0  0  0  0  0  0  0  0  0
    8.5144   32.4769   38.4721 O   0  0  0  0  0  0  0  0  0  0  0  0
    7.1370   25.2793   40.1771 O   0  0  0  0  0  0  0  0  0  0  0  0
    5.6914   25.2500   39.9715 C   0  0  0  0  0  0  0  0  0  0  0  0
    5.2508   23.8499   39.4674 C   0  0  0  0  0  0  0  0  0  0  0  0
    4.8899   22.9101   40.6228 C   0  0  0  0  0  0  0  0  0  0  0  0
    3.9024   23.5737   41.5848 C   0  0  0  0  0  0  0  0  0  0  0  0
    4.3306   24.9883   42.0122 C   0  0  0  0  0  0  0  0  0  0  0  0
    4.8028   25.8167   40.9398 O   0  0  0  0  0  0  0  0  0  0  0  0
    2.6130   23.5652   40.9454 O   0  0  0  0  0  0  0  0  0  0  0  0
    4.3167   21.6899   40.1250 O   0  0  0  0  0  0  0  0  0  0  0  0
    6.2420   23.2665   38.6094 O   0  0  0  0  0  0  0  0  0  0  0  0
    2.5570   24.3194   40.3304 H   0  0  0  0  0  0  0  0  0  0  0  0
    3.3454   21.8065   40.1562 H   0  0  0  0  0  0  0  0  0  0  0  0
    7.0834   23.2313   39.0945 H   0  0  0  0  0  0  0  0  0  0  0  0
    3.1645   25.7175   42.7202 C   0  0  0  0  0  0  0  0  0  0  0  0
    2.3998   24.8492   43.5557 O   0  0  0  0  0  0  0  0  0  0  0  0
    2.4796   23.9426   43.2214 H   0  0  0  0  0  0  0  0  0  0  0  0
 13 14  1  0  0  0
 14 15  1  0  0  0
 15 16  1  0  0  0
 16 17  2  0  0  0
 17 18  1  0  0  0
 13 18  1  0  0  0
 18 19  2  0  0  0
 19  1  1  0  0  0
  1  2  2  0  0  0
  2  3  1  0  0  0
  3  4  1  0  0  0
  4  5  1  0  0  0
  5  6  2  0  0  0
  6  7  1  0  0  0
  7  8  2  0  0  0
  8  9  1  0  0  0
  9 10  2  0  0  0
  5 10  1  0  0  0
  2 10  1  0  0  0
  8 11  1  0  0  0
  7 32  1  0  0  0
 32 33  1  0  0  0
 33 34  1  0  0  0
 34 35  1  0  0  0
 35 36  1  0  0  0
 36 37  1  0  0  0
 37 38  1  0  0  0
 33 38  1  0  0  0
 37 45  1  0  0  0
 45 46  1  0  0  0
 36 39  1  0  0  0
 35 40  1  0  0  0
 34 41  1  0  0  0
  3 29  1  0  0  0
 29 30  2  0  0  0
 29 31  1  0  0  0
 16 21  1  0  0  0
 21 22  2  0  0  0
 21 23  1  0  0  0
 14 25  1  0  0  0
 25 26  2  0  0  0
 25 27  1  0  0  0
 15 20  1  0  0  0
 11 12  1  0  0  0
 46 47  1  0  0  0
 39 42  1  0  0  0
 40 43  1  0  0  0
 41 44  1  0  0  0
 23 24  1  0  0  0
 27 28  1  0  0  0
M  CHG 1   2   1
M  CHG 1  31  -1
M  END
> <minimizedAffinity>
-10.89495

$$$$
mol_1


 53 59  0  0  0  0  0  0  0  0999 V2000
   11.8948   28.0339   30.6825 C   0  0  0  0  0  0  0  0  0  0  0  0
   12.1368   29.0263   29.6323 N   0  0  0  0  0  0  0  0  0  0  0  0
   12.1891   28.3372   28.3287 C   0  0  0  0  0  0  0  0  0  0  0  0
   13.1345   28.9706   27.3117 C   0  0  0  0  0  0  0  0  0  0  0  0
   14.5134   28.9884   27.9316 C   0  0  0  0  0  0  0  0  0  0  0  0
   14.5963   29.5101   29.2513 C   0  0  0  0  0  0  0  0  0  0  0  0
   13.2806   29.9688   29.8768 C   0  0  0  0  0  0  0  0  0  0  0  0
   13.3896   30.4277   31.3443 C   0  0  0  0  0  0  0  0  0  0  0  0
   14.7336   30.9508   31.7935 C   0  0  0  0  0  0  0  0  0  0  0  0
   14.7921   31.7198   32.9873 C   0  0  0  0  0  0  0  0  0  0  0  0
   16.0019   31.7894   33.6903 C   0  0  0  0  0  0  0  0  0  0  0  0
   17.1817   31.4535   33.0507 C   0  0  0  0  0  0  0  0  0  0  0  0
   17.1172   30.8433   31.7918 C   0  0  0  0  0  0  0  0  0  0  0  0
   15.9081   30.4711   31.1713 C   0  0  0  0  0  0  0  0  0  0  0  0
   15.8442   29.6720   29.8957 C   0  0  0  0  0  0  0  0  0  0  0  0
   16.9752   29.0955   29.2343 C   0  0  0  0  0  0  0  0  0  0  0  0
   16.8932   28.5400   27.9254 C   0  0  0  0  0  0  0  0  0  0  0  0
   15.6585   28.5376   27.2725 C   0  0  0  0  0  0  0  0  0  0  0  0
   15.5447   28.0717   25.9923 O   0  0  0  0  0  0  0  0  0  0  0  0
   16.0327   32.1160   35.0215 O   0  0  0  0  0  0  0  0  0  0  0  0
   14.7970   27.4533   25.9679 H   0  0  0  0  0  0  0  0  0  0  0  0
   15.1207   32.0699   35.3548 H   0  0  0  0  0  0  0  0  0  0  0  0
   18.0604   28.0228   27.4236 O   0  0  0  0  0  0  0  0  0  0  0  0
   18.2460   26.6210   27.3296 C   0  0  0  0  0  0  0  0  0  0  0  0
   18.1225   28.9312   29.9898 O   0  0  0  0  0  0  0  0  0  0  0  0
   18.1958   27.7579   30.7978 C   0  0  0  0  0  0  0  0  0  0  0  0
   18.4578   31.6091   33.5281 O   0  0  0  0  0  0  0  0  0  0  0  0
   19.3020   30.4652   33.4699 C   0  0  0  0  0  0  0  0  0  0  0  0
   13.6046   32.2976   33.4113 O   0  0  0  0  0  0  0  0  0  0  0  0
   12.8306   31.7027   34.3909 C   0  0  0  0  0  0  0  0  0  0  0  0
   12.9754   30.3980   34.8630 C   0  0  0  0  0  0  0  0  0  0  0  0
   11.9005   29.7713   35.5031 C   0  0  0  0  0  0  0  0  0  0  0  0
   10.7213   30.4765   35.7736 C   0  0  0  0  0  0  0  0  0  0  0  0
   10.7392   31.8628   35.5903 C   0  0  0  0  0  0  0  0  0  0  0  0
   11.7650   32.4666   34.8577 C   0  0  0  0  0  0  0  0  0  0  0  0
    9.4741   29.7319   36.2143 C   0  0  0  0  0  0  0  0  0  0  0  0
    9.0236   29.7963   37.7281 C   0  0  0  0  0  0  0  0  0  0  0  0
   10.2260   29.8804   38.6591 C   0  0  0  0  0  0  0  0  0  0  0  0
   11.0243   28.7420   38.8777 C   0  0  0  0  0  0  0  0  0  0  0  0
   12.2073   28.8050   39.6286 C   0  0  0  0  0  0  0  0  0  0  0  0
   12.6439   30.0491   40.1009 C   0  0  0  0  0  0  0  0  0  0  0  0
   11.8114   31.1708   39.9175 C   0  0  0  0  0  0  0  0  0  0  0  0
   10.5893   31.0994   39.2438 C   0  0  0  0  0  0  0  0  0  0  0  0
    9.6734   32.2948   39.1619 C   0  0  0  0  0  0  0  0  0  0  0  0
    8.4394   32.1213   38.2584 C   0  0  0  0  0  0  0  0  0  0  0  0
    7.9676   30.7397   38.1513 N   0  0  0  0  0  0  0  0  0  0  0  0
    6.7476   30.6476   37.3618 C   0  0  0  0  0  0  0  0  0  0  0  0
   12.2293   32.3925   40.3899 O   0  0  0  0  0  0  0  0  0  0  0  0
   13.1116   32.2193   40.7736 H   0  0  0  0  0  0  0  0  0  0  0  0
   13.8085   30.3554   40.7644 O   0  0  0  0  0  0  0  0  0  0  0  0
   13.9029   30.0333   42.1446 C   0  0  0  0  0  0  0  0  0  0  0  0
   12.9677   27.6872   39.8499 O   0  0  0  0  0  0  0  0  0  0  0  0
   12.4678   26.7852   40.8348 C   0  0  0  0  0  0  0  0  0  0  0  0
  1  2  1  0  0  0
  2  3  1  0  0  0
  3  4  1  0  0  0
  4  5  1  0  0  0
  5  6  2  0  0  0
  6  7  1  0  0  0
  2  7  1  0  0  0
  7  8  1  0  0  0
  8  9  1  0  0  0
  9 10  2  0  0  0
 10 11  1  0  0  0
 11 12  2  0  0  0
 12 13  1  0  0  0
 13 14  2  0  0  0
  9 14  1  0  0  0
 14 15  1  0  0  0
  6 15  1  0  0  0
 15 16  2  0  0  0
 16 17  1  0  0  0
 17 18  2  0  0  0
  5 18  1  0  0  0
 18 19  1  0  0  0
 17 23  1  0  0  0
 23 24  1  0  0  0
 16 25  1  0  0  0
 25 26  1  0  0  0
 12 27  1  0  0  0
 27 28  1  0  0  0
 11 20  1  0  0  0
 10 29  1  0  0  0
 29 30  1  0  0  0
 30 31  2  0  0  0
 31 32  1  0  0  0
 32 33  2  0  0  0
 33 34  1  0  0  0
 34 35  2  0  0  0
 30 35  1  0  0  0
 33 36  1  0  0  0
 36 37  1  0  0  0
 37 38  1  0  0  0
 38 39  2  0  0  0
 39 40  1  0  0  0
 40 41  2  0  0  0
 41 42  1  0  0  0
 42 43  2  0  0  0
 38 43  1  0  0  0
 43 44  1  0  0  0
 44 45  1  0  0  0
 45 46  1  0  0  0
 37 46  1  0  0  0
 46 47  1  0  0  0
 42 48  1  0  0  0
 41 50  1  0  0  0
 50 51  1  0  0  0
 40 52  1  0  0  0
 52 53  1  0  0  0
 19 21  1  0  0  0
 20 22  1  0  0  0
 48 49  1  0  0  0
M  END
> <minimizedAffinity>
-11.03850

$$$$
mol_2


 56 61  0  0  0  0  0  0  0  0999 V2000
   11.9212   29.5662   43.9883 C   0  0  0  0  0  0  0  0  0  0  0  0
   10.6924   28.9183   43.9200 C   0  0  0  0  0  0  0  0  0  0  0  0
   10.6320   27.5240   43.9966 C   0  0  0  0  0  0  0  0  0  0  0  0
   11.8315   26.7805   43.9822 C   0  0  0  0  0  0  0  0  0  0  0  0
   13.0742   27.4149   44.0576 C   0  0  0  0  0  0  0  0  0  0  0  0
   13.1000   28.8074   44.0937 C   0  0  0  0  0  0  0  0  0  0  0  0
   11.8032   25.4062   43.9803 O   0  0  0  0  0  0  0  0  0  0  0  0
   10.9456   25.1252   43.6179 H   0  0  0  0  0  0  0  0  0  0  0  0
    9.3771   26.9391   44.4716 C   0  0  0  0  0  0  0  0  0  0  0  0
    9.1876   26.2535   45.6738 C   0  0  0  0  0  0  0  0  0  0  0  0
    7.9395   25.6820   45.9743 C   0  0  0  0  0  0  0  0  0  0  0  0
    6.8664   25.8737   45.0916 C   0  0  0  0  0  0  0  0  0  0  0  0
    7.0327   26.5835   43.8934 C   0  0  0  0  0  0  0  0  0  0  0  0
    8.3038   27.0321   43.5700 C   0  0  0  0  0  0  0  0  0  0  0  0
   10.2122   26.1013   46.5730 O   0  0  0  0  0  0  0  0  0  0  0  0
   10.9985   26.5669   46.2457 H   0  0  0  0  0  0  0  0  0  0  0  0
    7.8614   24.9714   47.1450 O   0  0  0  0  0  0  0  0  0  0  0  0
    7.9203   23.5547   47.0495 C   0  0  0  0  0  0  0  0  0  0  0  0
    5.8829   26.8165   42.9559 C   0  0  0  0  0  0  0  0  0  0  0  0
    5.3863   28.2577   42.7044 C   0  0  0  0  0  0  0  0  0  0  0  0
    5.4581   29.0207   41.3671 C   0  0  0  0  0  0  0  0  0  0  0  0
    3.9953   29.3592   41.0682 C   0  0  0  0  0  0  0  0  0  0  0  0
    3.2371   29.1392   42.2486 O   0  0  0  0  0  0  0  0  0  0  0  0
    3.9504   28.4148   43.1428 C   0  0  0  0  0  0  0  0  0  0  0  0
    3.4832   27.9926   44.1894 O   0  0  0  0  0  0  0  0  0  0  0  0
    6.0966   28.4880   40.0733 C   0  0  0  0  0  0  0  0  0  0  0  0
    7.5296   28.0319   40.0202 C   0  0  0  0  0  0  0  0  0  0  0  0
    7.7833   26.6635   39.8235 C   0  0  0  0  0  0  0  0  0  0  0  0
    9.0768   26.1197   39.9048 C   0  0  0  0  0  0  0  0  0  0  0  0
   10.1524   26.9621   40.2229 C   0  0  0  0  0  0  0  0  0  0  0  0
    9.9014   28.3308   40.3899 C   0  0  0  0  0  0  0  0  0  0  0  0
    8.6164   28.8607   40.2499 C   0  0  0  0  0  0  0  0  0  0  0  0
   11.4056   26.4230   40.3320 O   0  0  0  0  0  0  0  0  0  0  0  0
   12.5111   27.3144   40.3952 C   0  0  0  0  0  0  0  0  0  0  0  0
    9.0861   24.7736   39.6440 O   0  0  0  0  0  0  0  0  0  0  0  0
    7.8697   24.0497   39.7401 C   0  0  0  0  0  0  0  0  0  0  0  0
   14.1774   26.6083   44.1588 O   0  0  0  0  0  0  0  0  0  0  0  0
   15.0264   26.5311   43.0204 C   0  0  0  0  0  0  0  0  0  0  0  0
   11.9731   31.0585   44.1412 C   0  0  0  0  0  0  0  0  0  0  0  0
   12.8668   32.1816   42.0221 C   0  0  0  0  0  0  0  0  0  0  0  0
   13.5887   33.4995   41.8335 C   0  0  0  0  0  0  0  0  0  0  0  0
   13.8389   34.0306   43.1292 O   0  0  0  0  0  0  0  0  0  0  0  0
   13.5918   33.1034   44.0976 C   0  0  0  0  0  0  0  0  0  0  0  0
   13.7765   33.3378   45.2758 O   0  0  0  0  0  0  0  0  0  0  0  0
   13.1370   31.7981   43.4837 C   0  0  0  0  0  0  0  0  0  0  0  0
   11.4117   32.2007   41.4863 C   0  0  0  0  0  0  0  0  0  0  0  0
   10.1931   31.5820   37.3489 C   0  0  0  0  0  0  0  0  0  0  0  0
    9.2857   32.0294   38.3158 C   0  0  0  0  0  0  0  0  0  0  0  0
    9.7262   32.2117   39.6391 C   0  0  0  0  0  0  0  0  0  0  0  0
   11.0453   31.9306   40.0401 C   0  0  0  0  0  0  0  0  0  0  0  0
   11.9188   31.4647   39.0603 C   0  0  0  0  0  0  0  0  0  0  0  0
   11.5115   31.3248   37.7312 C   0  0  0  0  0  0  0  0  0  0  0  0
   10.7950   31.8992   35.0976 C   0  0  0  0  0  0  0  0  0  0  0  0
    9.8084   31.4796   36.0381 O   0  0  0  0  0  0  0  0  0  0  0  0
    7.9630   32.3464   38.1453 O   0  0  0  0  0  0  0  0  0  0  0  0
    7.0674   31.2789   37.8659 C   0  0  0  0  0  0  0  0  0  0  0  0
 53 54  1  0  0  0
 54 47  1  0  0  0
 47 48  2  0  0  0
 48 49  1  0  0  0
 49 50  2  0  0  0
 50 51  1  0  0  0
 51 52  2  0  0  0
 47 52  1  0  0  0
 50 46  1  0  0  0
 46 40  1  0  0  0
 40 41  1  0  0  0
 41 42  1  0  0  0
 42 43  1  0  0  0
 43 44  2  0  0  0
 43 45  1  0  0  0
 40 45  1  0  0  0
 45 39  1  0  0  0
 39  1  1  0  0  0
  1  2  2  0  0  0
  2  3  1  0  0  0
  3  4  2  0  0  0
  4  5  1  0  0  0
  5  6  2  0  0  0
  1  6  1  0  0  0
  5 37  1  0  0  0
 37 38  1  0  0  0
  4  7  1  0  0  0
  3  9  1  0  0  0
  9 10  2  0  0  0
 10 11  1  0  0  0
 11 12  2  0  0  0
 12 13  1  0  0  0
 13 14  2  0  0  0
  9 14  1  0  0  0
 13 19  1  0  0  0
 19 20  1  0  0  0
 20 21  1  0  0  0
 21 22  1  0  0  0
 22 23  1  0  0  0
 23 24  1  0  0  0
 20 24  1  0  0  0
 24 25  2  0  0  0
 21 26  1  0  0  0
 26 27  1  0  0  0
 27 28  2  0  0  0
 28 29  1  0  0  0
 29 30  2  0  0  0
 30 31  1  0  0  0
 31 32  2  0  0  0
 27 32  1  0  0  0
 30 33  1  0  0  0
 33 34  1  0  0  0
 29 35  1  0  0  0
 35 36  1  0  0  0
 11 17  1  0  0  0
 17 18  1  0  0  0
 10 15  1  0  0  0
 48 55  1  0  0  0
 55 56  1  0  0  0
  7  8  1  0  0  0
 15 16  1  0  0  0
M  END
> <minimizedAffinity>
-9.37667

$$$$
mol_3


 49 55  0  0  0  0  0  0  0  0999 V2000
    9.6215   24.7838   42.5547 C   0  0  0  0  0  0  0  0  0  0  0  0
    9.2571   24.4371   41.1811 N   0  0  0  0  0  0  0  0  0  0  0  0
    8.9061   22.9997   41.1330 C   0  0  0  0  0  0  0  0  0  0  0  0
    7.7837   22.6199   40.1698 C   0  0  0  0  0  0  0  0  0  0  0  0
    6.5949   23.4827   40.4922 C   0  0  0  0  0  0  0  0  0  0  0  0
    5.3187   22.9546   40.6487 C   0  0  0  0  0  0  0  0  0  0  0  0
    4.2657   23.7877   41.0281 C   0  0  0  0  0  0  0  0  0  0  0  0
    4.4661   25.1905   41.0839 C   0  0  0  0  0  0  0  0  0  0  0  0
    5.7344   25.7622   40.7840 C   0  0  0  0  0  0  0  0  0  0  0  0
    6.8182   24.8639   40.6363 C   0  0  0  0  0  0  0  0  0  0  0  0
    8.2604   25.3530   40.5369 C   0  0  0  0  0  0  0  0  0  0  0  0
    8.3593   26.8268   41.0095 C   0  0  0  0  0  0  0  0  0  0  0  0
    7.3072   27.7086   40.3705 C   0  0  0  0  0  0  0  0  0  0  0  0
    7.5483   28.9846   39.8081 C   0  0  0  0  0  0  0  0  0  0  0  0
    6.4691   29.8470   39.5414 C   0  0  0  0  0  0  0  0  0  0  0  0
    5.1612   29.4365   39.7544 C   0  0  0  0  0  0  0  0  0  0  0  0
    4.9370   28.1131   40.1493 C   0  0  0  0  0  0  0  0  0  0  0  0
    5.9756   27.2188   40.4764 C   0  0  0  0  0  0  0  0  0  0  0  0
    6.7413   31.1016   39.0500 O   0  0  0  0  0  0  0  0  0  0  0  0
    7.7111   31.1588   38.9643 H   0  0  0  0  0  0  0  0  0  0  0  0
    4.0168   30.1662   39.5744 O   0  0  0  0  0  0  0  0  0  0  0  0
    3.1955   30.3621   40.7201 C   0  0  0  0  0  0  0  0  0  0  0  0
    3.5140   26.0586   41.5733 O   0  0  0  0  0  0  0  0  0  0  0  0
    3.4316   26.2047   42.9864 C   0  0  0  0  0  0  0  0  0  0  0  0
    3.0206   23.2956   41.3274 O   0  0  0  0  0  0  0  0  0  0  0  0
    2.9574   22.1505   42.1685 C   0  0  0  0  0  0  0  0  0  0  0  0
    8.7611   29.5852   39.5248 O   0  0  0  0  0  0  0  0  0  0  0  0
    9.5834   30.0588   40.5077 C   0  0  0  0  0  0  0  0  0  0  0  0
    9.2038   30.3437   41.8150 C   0  0  0  0  0  0  0  0  0  0  0  0
   10.0028   31.2106   42.5619 C   0  0  0  0  0  0  0  0  0  0  0  0
   11.2089   31.7062   42.0413 C   0  0  0  0  0  0  0  0  0  0  0  0
   11.7166   31.1000   40.8958 C   0  0  0  0  0  0  0  0  0  0  0  0
   10.8860   30.3183   40.1024 C   0  0  0  0  0  0  0  0  0  0  0  0
   11.8282   32.9198   42.6973 C   0  0  0  0  0  0  0  0  0  0  0  0
   13.3313   32.9567   43.1752 C   0  0  0  0  0  0  0  0  0  0  0  0
   13.5488   32.0660   44.3931 C   0  0  0  0  0  0  0  0  0  0  0  0
   12.7617   32.2806   45.5446 C   0  0  0  0  0  0  0  0  0  0  0  0
   12.8531   31.4381   46.6472 C   0  0  0  0  0  0  0  0  0  0  0  0
   13.7655   30.3838   46.6025 C   0  0  0  0  0  0  0  0  0  0  0  0
   14.5905   30.1804   45.5016 C   0  0  0  0  0  0  0  0  0  0  0  0
   14.4926   31.0274   44.3890 C   0  0  0  0  0  0  0  0  0  0  0  0
   15.4526   30.8675   43.2417 C   0  0  0  0  0  0  0  0  0  0  0  0
   15.0450   31.6063   41.9623 C   0  0  0  0  0  0  0  0  0  0  0  0
   14.4420   32.9193   42.1912 N   0  0  0  0  0  0  0  0  0  0  0  0
   14.1247   33.5639   40.9233 C   0  0  0  0  0  0  0  0  0  0  0  0
   13.8740   29.5255   47.6628 O   0  0  0  0  0  0  0  0  0  0  0  0
   13.2156   29.8461   48.3093 H   0  0  0  0  0  0  0  0  0  0  0  0
   12.1161   31.5422   47.7987 O   0  0  0  0  0  0  0  0  0  0  0  0
   12.0464   32.8379   48.3878 C   0  0  0  0  0  0  0  0  0  0  0  0
  1  2  1  0  0  0
  2  3  1  0  0  0
  3  4  1  0  0  0
  4  5  1  0  0  0
  5  6  2  0  0  0
  6  7  1  0  0  0
  7  8  2  0  0  0
  8  9  1  0  0  0
  9 10  2  0  0  0
  5 10  1  0  0  0
 10 11  1  0  0  0
  2 11  1  0  0  0
 11 12  1  0  0  0
 12 13  1  0  0  0
 13 14  2  0  0  0
 14 15  1  0  0  0
 15 16  2  0  0  0
 16 17  1  0  0  0
 17 18  2  0  0  0
 13 18  1  0  0  0
  9 18  1  0  0  0
 16 21  1  0  0  0
 21 22  1  0  0  0
 15 19  1  0  0  0
 14 27  1  0  0  0
 27 28  1  0  0  0
 28 29  2  0  0  0
 29 30  1  0  0  0
 30 31  2  0  0  0
 31 32  1  0  0  0
 32 33  2  0  0  0
 28 33  1  0  0  0
 31 34  1  0  0  0
 34 35  1  0  0  0
 35 36  1  0  0  0
 36 37  2  0  0  0
 37 38  1  0  0  0
 38 39  2  0  0  0
 39 40  1  0  0  0
 40 41  2  0  0  0
 36 41  1  0  0  0
 41 42  1  0  0  0
 42 43  1  0  0  0
 43 44  1  0  0  0
 35 44  1  0  0  0
 44 45  1  0  0  0
 39 46  1  0  0  0
 38 48  1  0  0  0
 48 49  1  0  0  0
  8 23  1  0  0  0
 23 24  1  0  0  0
  7 25  1  0  0  0
 25 26  1  0  0  0
 19 20  1  0  0  0
 46 47  1  0  0  0
M  END
> <minimizedAffinity>
-10.57814

$$$$
mol_4


 39 41  0  0  0  0  0  0  0  0999 V2000
   13.0390   31.2105   37.2008 O   0  0  0  0  0  0  0  0  0  0  0  0
   13.6640   29.9352   36.2596 P   0  0  0  0  0  0  0  0  0  0  0  0
   13.5722   28.6493   37.0893 O   0  0  0  0  0  0  0  0  0  0  0  0
   15.2613   30.2265   36.9891 N   0  0  0  0  0  0  0  0  0  0  0  0
   15.5190   29.6523   37.7844 H   0  0  0  0  0  0  0  0  0  0  0  0
   16.3124   30.7013   36.0913 C   0  0  0  0  0  0  0  0  0  0  0  0
   15.8407   31.8319   35.1896 C   0  0  0  0  0  0  0  0  0  0  0  0
   16.8677   29.5591   35.2392 C   0  0  0  0  0  0  0  0  0  0  0  0
   16.9686   28.3931   35.5970 O   0  0  0  0  0  0  0  0  0  0  0  0
   17.2072   30.0411   34.0071 O   0  0  0  0  0  0  0  0  0  0  0  0
   18.5569   30.1519   32.0477 C   0  0  0  0  0  0  0  0  0  0  0  0
   18.5054   29.6800   33.4981 C   0  0  0  0  0  0  0  0  0  0  0  0
   19.6024   30.3567   34.3120 C   0  0  0  0  0  0  0  0  0  0  0  0
   12.1116   29.6522   35.5505 O   0  0  0  0  0  0  0  0  0  0  0  0
   11.9851   29.7930   34.1915 C   0  0  0  0  0  0  0  0  0  0  0  0
   11.9375   28.7031   33.3239 C   0  0  0  0  0  0  0  0  0  0  0  0
   11.9150   28.9220   31.9451 C   0  0  0  0  0  0  0  0  0  0  0  0
   11.9229   30.2234   31.4419 C   0  0  0  0  0  0  0  0  0  0  0  0
   11.9347   31.3100   32.3163 C   0  0  0  0  0  0  0  0  0  0  0  0
   11.9582   31.0944   33.6940 C   0  0  0  0  0  0  0  0  0  0  0  0
   12.3527   30.9041   38.4256 C   0  0  0  0  0  0  0  0  0  0  0  0
   13.1044   31.1320   39.7438 C   0  0  0  0  0  0  0  0  0  0  0  0
   13.8394   32.4853   39.6993 C   0  0  0  0  0  0  0  0  0  0  0  0
   13.9723   32.8394   41.1669 C   0  0  0  0  0  0  0  0  0  0  0  0
   12.6208   32.3502   41.7123 C   0  0  0  0  0  0  0  0  0  0  0  0
   12.1891   31.2392   40.8732 O   0  0  0  0  0  0  0  0  0  0  0  0
   14.2779   34.3027   41.4422 C   0  0  0  0  0  0  0  0  0  0  0  0
   14.9940   32.0903   41.6807 F   0  0  0  0  0  0  0  0  0  0  0  0
   13.1207   33.4995   38.9830 O   0  0  0  0  0  0  0  0  0  0  0  0
   12.1902   33.5250   39.2717 H   0  0  0  0  0  0  0  0  0  0  0  0
   12.6393   31.9589   43.1222 N   0  0  0  0  0  0  0  0  0  0  0  0
   13.1111   30.7163   43.4963 C   0  0  0  0  0  0  0  0  0  0  0  0
   13.1839   30.3397   44.7749 C   0  0  0  0  0  0  0  0  0  0  0  0
   12.7369   31.2750   45.8156 C   0  0  0  0  0  0  0  0  0  0  0  0
   12.7601   30.9616   47.0031 O   0  0  0  0  0  0  0  0  0  0  0  0
   12.3088   32.4918   45.3757 N   0  0  0  0  0  0  0  0  0  0  0  0
   12.2533   32.9022   44.0674 C   0  0  0  0  0  0  0  0  0  0  0  0
   11.8889   34.0424   43.7899 O   0  0  0  0  0  0  0  0  0  0  0  0
   12.0145   33.1542   46.0765 H   0  0  0  0  0  0  0  0  0  0  0  0
 11 12  1  0  0  0
 12 13  1  0  0  0
 12 10  1  0  0  0
 10  8  1  0  0  0
  8  9  2  0  0  0
  8  6  1  0  0  0
  6  7  1  0  0  0
  6  4  1  0  0  0
  4  2  1  0  0  0
  2  3  2  0  0  0
  2  1  1  0  0  0
  1 21  1  0  0  0
 21 22  1  0  0  0
 22 23  1  0  0  0
 23 24  1  0  0  0
 24 25  1  0  0  0
 25 26  1  0  0  0
 22 26  1  0  0  0
 25 31  1  0  0  0
 31 32  1  0  0  0
 32 33  2  0  0  0
 33 34  1  0  0  0
 34 35  2  0  0  0
 34 36  1  0  0  0
 36 37  1  0  0  0
 31 37  1  0  0  0
 37 38  2  0  0  0
 24 27  1  0  0  0
 24 28  1  0  0  0
 23 29  1  0  0  0
  2 14  1  0  0  0
 14 15  1  0  0  0
 15 16  2  0  0  0
 16 17  1  0  0  0
 17 18  2  0  0  0
 18 19  1  0  0  0
 19 20  2  0  0  0
 15 20  1  0  0  0
  4  5  1  0  0  0
 36 39  1  0  0  0
 29 30  1  0  0  0
M  END
> <minimizedAffinity>
-8.90967

$$$$
