mol_0


 47 50  0  0  0  0  0  0  0  0999 V2000
   10.5821   30.7557   40.5310 C   0  0  0  0  0  0  0  0  0  0  0  0
    9.6854   30.1898   39.7945 N   0  0  0  0  0  0  0  0  0  0  0  0
    9.3211   30.5096   38.3672 C   0  0  0  0  0  0  0  0  0  0  0  0
    7.9395   29.8519   38.1767 C   0  0  0  0  0  0  0  0  0  0  0  0
    7.9775   28.7627   39.2142 C   0  0  0  0  0  0  0  0  0  0  0  0
    7.1799   27.6184   39.3262 C   0  0  0  0  0  0  0  0  0  0  0  0
    7.5551   26.6398   40.2545 C   0  0  0  0  0  0  0  0  0  0  0  0
    8.7499   26.8173   40.9529 C   0  0  0  0  0  0  0  0  0  0  0  0
    9.4386   28.0151   40.9829 C   0  0  0  0  0  0  0  0  0  0  0  0
    9.0293   28.9912   40.1037 C   0  0  0  0  0  0  0  0  0  0  0  0
    9.4054   25.7554   41.5000 O   0  0  0  0  0  0  0  0  0  0  0  0
    9.3327   25.0448   40.8322 H   0  0  0  0  0  0  0  0  0  0  0  0
   13.0438   31.7097   41.9664 C   0  0  0  0  0  0  0  0  0  0  0  0
   14.1599   32.3195   42.8429 C   0  0  0  0  0  0  0  0  0  0  0  0
   14.1095   31.8830   44.2579 N   0  0  0  0  0  0  0  0  0  0  0  0
   13.0573   31.1494   44.7877 C   0  0  0  0  0  0  0  0  0  0  0  0
   12.0037   30.7423   44.0668 C   0  0  0  0  0  0  0  0  0  0  0  0
   11.8832   31.0065   42.6434 C   0  0  0  0  0  0  0  0  0  0  0  0
   10.7615   30.6228   42.0039 C   0  0  0  0  0  0  0  0  0  0  0  0
   14.4372   32.6354   44.8797 H   0  0  0  0  0  0  0  0  0  0  0  0
   13.0536   30.7817   46.2504 C   0  0  0  0  0  0  0  0  0  0  0  0
   12.4033   31.3469   47.1176 O   0  0  0  0  0  0  0  0  0  0  0  0
   13.8435   29.7108   46.4783 O   0  0  0  0  0  0  0  0  0  0  0  0
   14.1355   29.3243   45.6288 H   0  0  0  0  0  0  0  0  0  0  0  0
   14.2129   33.8603   42.8086 C   0  0  0  0  0  0  0  0  0  0  0  0
   13.4927   34.5482   43.5273 O   0  0  0  0  0  0  0  0  0  0  0  0
   15.1695   34.4157   42.0383 O   0  0  0  0  0  0  0  0  0  0  0  0
   15.7277   33.8339   41.4882 H   0  0  0  0  0  0  0  0  0  0  0  0
    9.3171   32.0026   38.0554 C   0  0  0  0  0  0  0  0  0  0  0  0
   10.2419   32.4204   37.3044 O   0  0  0  0  0  0  0  0  0  0  0  0
    8.3376   32.6222   38.5450 O   0  0  0  0  0  0  0  0  0  0  0  0
    6.9542   25.4192   40.2563 O   0  0  0  0  0  0  0  0  0  0  0  0
    5.5120   25.3104   40.0534 C   0  0  0  0  0  0  0  0  0  0  0  0
    5.1439   23.8768   39.5867 C   0  0  0  0  0  0  0  0  0  0  0  0
    4.8317   22.9504   40.7669 C   0  0  0  0  0  0  0  0  0  0  0  0
    3.8114   23.5874   41.7125 C   0  0  0  0  0  0  0  0  0  0  0  0
    4.1664   25.0328   42.1021 C   0  0  0  0  0  0  0  0  0  0  0  0
    4.5955   25.8559   41.0077 O   0  0  0  0  0  0  0  0  0  0  0  0
    2.5242   23.4959   41.0753 O   0  0  0  0  0  0  0  0  0  0  0  0
    4.3220   21.6897   40.3020 O   0  0  0  0  0  0  0  0  0  0  0  0
    6.1638   23.3226   38.7430 O   0  0  0  0  0  0  0  0  0  0  0  0
    2.4295   24.2298   40.4408 H   0  0  0  0  0  0  0  0  0  0  0  0
    3.3459   21.7570   40.3315 H   0  0  0  0  0  0  0  0  0  0  0  0
    7.0059   23.3435   39.2278 H   0  0  0  0  0  0  0  0  0  0  0  0
    2.9643   25.7195   42.7922 C   0  0  0  0  0  0  0  0  0  0  0  0
    2.2548   24.8397   43.6635 O   0  0  0  0  0  0  0  0  0  0  0  0
    2.3843   23.9277   43.3609 H   0  0  0  0  0  0  0  0  0  0  0  0
 13 14  1  0  0  0
 14 15  1  0  0  0
 15 16  1  0  0  0
 16 17  2  0  0  0
 17 18  1  0  0  0
 13 18  1  0  0  0
 18 19  2  0  0  0
 19  1  1  0  0  0
  1  2  2  0  0  0
  2  3  1  0  0  0
  3  4  1  0  0  0
  4  5  1  0  0  0
  5  6  2  0  0  0
  6  7  1  0  0  0
  7  8  2  0  0  0
  8  9  1  0  0  0
  9 10  2  0  0  0
  5 10  1  0  0  0
  2 10  1  0  0  0
  8 11  1  0  0  0
  7 32  1  0  0  0
 32 33  1  0  0  0
 33 34  1  0  0  0
 34 35  1  0  0  0
 35 36  1  0  0  0
 36 37  1  0  0  0
 37 38  1  0  0  0
 33 38  1  0  0  0
 37 45  1  0  0  0
 45 46  1  0  0  0
 36 39  1  0  0  0
 35 40  1  0  0  0
 34 41  1  0  0  0
  3 29  1  0  0  0
 29 30  2  0  0  0
 29 31  1  0  0  0
 16 21  1  0  0  0
 21 22  2  0  0  0
 21 23  1  0  0  0
 14 25  1  0  0  0
 25 26  2  0  0  0
 25 27  1  0  0  0
 15 20  1  0  0  0
 11 12  1  0  0  0
 46 47  1  0  0  0
 39 42  1  0  0  0
 40 43  1  0  0  0
 41 44  1  0  0  0
 23 24  1  0  0  0
 27 28  1  0  0  0
M  CHG 1   2   1
M  CHG 1  31  -1
M  END
> <minimizedAffinity>
-10.70114

$$$$
mol_1


 53 59  0  0  0  0  0  0  0  0999 V2000
   11.9027   28.0675   30.7335 C   0  0  0  0  0  0  0  0  0  0  0  0
   12.1501   29.0612   29.6857 N   0  0  0  0  0  0  0  0  0  0  0  0
   12.1831   28.3772   28.3788 C   0  0  0  0  0  0  0  0  0  0  0  0
   13.1291   29.0023   27.3573 C   0  0  0  0  0  0  0  0  0  0  0  0
   14.5129   28.9987   27.9666 C   0  0  0  0  0  0  0  0  0  0  0  0
   14.6129   29.5134   29.2879 C   0  0  0  0  0  0  0  0  0  0  0  0
   13.3085   29.9870   29.9254 C   0  0  0  0  0  0  0  0  0  0  0  0
   13.4349   30.4380   31.3940 C   0  0  0  0  0  0  0  0  0  0  0  0
   14.7893   30.9409   31.8351 C   0  0  0  0  0  0  0  0  0  0  0  0
   14.8673   31.7037   33.0317 C   0  0  0  0  0  0  0  0  0  0  0  0
   16.0833   31.7539   33.7256 C   0  0  0  0  0  0  0  0  0  0  0  0
   17.2535   31.4048   33.0755 C   0  0  0  0  0  0  0  0  0  0  0  0
   17.1711   30.8012   31.8145 C   0  0  0  0  0  0  0  0  0  0  0  0
   15.9524   30.4481   31.2018 C   0  0  0  0  0  0  0  0  0  0  0  0
   15.8679   29.6555   29.9232 C   0  0  0  0  0  0  0  0  0  0  0  0
   16.9858   29.0667   29.2507 C   0  0  0  0  0  0  0  0  0  0  0  0
   16.8863   28.5182   27.9400 C   0  0  0  0  0  0  0  0  0  0  0  0
   15.6466   28.5354   27.2968 C   0  0  0  0  0  0  0  0  0  0  0  0
   15.5168   28.0766   26.0154 O   0  0  0  0  0  0  0  0  0  0  0  0
   16.1287   32.0742   35.0579 O   0  0  0  0  0  0  0  0  0  0  0  0
   14.7605   27.4686   25.9941 H   0  0  0  0  0  0  0  0  0  0  0  0
   15.2187   32.0389   35.3980 H   0  0  0  0  0  0  0  0  0  0  0  0
   18.0425   27.9875   27.4271 O   0  0  0  0  0  0  0  0  0  0  0  0
   18.2137   26.5835   27.3378 C   0  0  0  0  0  0  0  0  0  0  0  0
   18.1366   28.8837   29.9966 O   0  0  0  0  0  0  0  0  0  0  0  0
   18.2015   27.7043   30.7965 C   0  0  0  0  0  0  0  0  0  0  0  0
   18.5352   31.5411   33.5436 O   0  0  0  0  0  0  0  0  0  0  0  0
   19.1870   30.3494   33.9674 C   0  0  0  0  0  0  0  0  0  0  0  0
   13.6911   32.2957   33.4674 O   0  0  0  0  0  0  0  0  0  0  0  0
   12.9021   31.6931   34.4302 C   0  0  0  0  0  0  0  0  0  0  0  0
   13.0185   30.3744   34.8703 C   0  0  0  0  0  0  0  0  0  0  0  0
   11.9290   29.7547   35.4924 C   0  0  0  0  0  0  0  0  0  0  0  0
   10.7640   30.4775   35.7776 C   0  0  0  0  0  0  0  0  0  0  0  0
   10.8113   31.8673   35.6287 C   0  0  0  0  0  0  0  0  0  0  0  0
   11.8515   32.4674   34.9135 C   0  0  0  0  0  0  0  0  0  0  0  0
    9.5004   29.7486   36.1971 C   0  0  0  0  0  0  0  0  0  0  0  0
    9.0437   29.7906   37.7099 C   0  0  0  0  0  0  0  0  0  0  0  0
   10.2422   29.8645   38.6468 C   0  0  0  0  0  0  0  0  0  0  0  0
   11.0425   28.7250   38.8526 C   0  0  0  0  0  0  0  0  0  0  0  0
   12.2222   28.7804   39.6091 C   0  0  0  0  0  0  0  0  0  0  0  0
   12.6538   30.0188   40.1005 C   0  0  0  0  0  0  0  0  0  0  0  0
   11.8192   31.1409   39.9296 C   0  0  0  0  0  0  0  0  0  0  0  0
   10.6000   31.0760   39.2501 C   0  0  0  0  0  0  0  0  0  0  0  0
    9.6815   32.2702   39.1812 C   0  0  0  0  0  0  0  0  0  0  0  0
    8.4516   32.1064   38.2704 C   0  0  0  0  0  0  0  0  0  0  0  0
    7.9837   30.7253   38.1420 N   0  0  0  0  0  0  0  0  0  0  0  0
    6.7671   30.6413   37.3464 C   0  0  0  0  0  0  0  0  0  0  0  0
   12.2322   32.3569   40.4208 O   0  0  0  0  0  0  0  0  0  0  0  0
   13.1134   32.1804   40.8056 H   0  0  0  0  0  0  0  0  0  0  0  0
   13.8149   30.3185   40.7730 O   0  0  0  0  0  0  0  0  0  0  0  0
   13.8775   30.0453   42.1655 C   0  0  0  0  0  0  0  0  0  0  0  0
   12.9846   27.6614   39.8177 O   0  0  0  0  0  0  0  0  0  0  0  0
   12.5719   26.8253   40.8967 C   0  0  0  0  0  0  0  0  0  0  0  0
  1  2  1  0  0  0
  2  3  1  0  0  0
  3  4  1  0  0  0
  4  5  1  0  0  0
  5  6  2  0  0  0
  6  7  1  0  0  0
  2  7  1  0  0  0
  7  8  1  0  0  0
  8  9  1  0  0  0
  9 10  2  0  0  0
 10 11  1  0  0  0
 11 12  2  0  0  0
 12 13  1  0  0  0
 13 14  2  0  0  0
  9 14  1  0  0  0
 14 15  1  0  0  0
  6 15  1  0  0  0
 15 16  2  0  0  0
 16 17  1  0  0  0
 17 18  2  0  0  0
  5 18  1  0  0  0
 18 19  1  0  0  0
 17 23  1  0  0  0
 23 24  1  0  0  0
 16 25  1  0  0  0
 25 26  1  0  0  0
 12 27  1  0  0  0
 27 28  1  0  0  0
 11 20  1  0  0  0
 10 29  1  0  0  0
 29 30  1  0  0  0
 30 31  2  0  0  0
 31 32  1  0  0  0
 32 33  2  0  0  0
 33 34  1  0  0  0
 34 35  2  0  0  0
 30 35  1  0  0  0
 33 36  1  0  0  0
 36 37  1  0  0  0
 37 38  1  0  0  0
 38 39  2  0  0  0
 39 40  1  0  0  0
 40 41  2  0  0  0
 41 42  1  0  0  0
 42 43  2  0  0  0
 38 43  1  0  0  0
 43 44  1  0  0  0
 44 45  1  0  0  0
 45 46  1  0  0  0
 37 46  1  0  0  0
 46 47  1  0  0  0
 42 48  1  0  0  0
 41 50  1  0  0  0
 50 51  1  0  0  0
 40 52  1  0  0  0
 52 53  1  0  0  0
 19 21  1  0  0  0
 20 22  1  0  0  0
 48 49  1  0  0  0
M  END
> <minimizedAffinity>
-11.05660

$$$$
mol_2


 56 61  0  0  0  0  0  0  0  0999 V2000
    6.0207   28.5360   40.3880 C   0  0  0  0  0  0  0  0  0  0  0  0
    7.2244   27.9519   40.7679 C   0  0  0  0  0  0  0  0  0  0  0  0
    8.3582   28.1010   39.9642 C   0  0  0  0  0  0  0  0  0  0  0  0
    8.2293   28.7084   38.6968 C   0  0  0  0  0  0  0  0  0  0  0  0
    7.0296   29.3063   38.3021 C   0  0  0  0  0  0  0  0  0  0  0  0
    5.9447   29.2403   39.1736 C   0  0  0  0  0  0  0  0  0  0  0  0
    9.3098   28.8019   37.8522 O   0  0  0  0  0  0  0  0  0  0  0  0
    9.9414   28.1037   38.0962 H   0  0  0  0  0  0  0  0  0  0  0  0
    9.6596   27.9780   40.6229 C   0  0  0  0  0  0  0  0  0  0  0  0
   10.6940   27.1145   40.2547 C   0  0  0  0  0  0  0  0  0  0  0  0
   11.8704   27.0514   41.0206 C   0  0  0  0  0  0  0  0  0  0  0  0
   12.0266   27.9189   42.1118 C   0  0  0  0  0  0  0  0  0  0  0  0
   11.0087   28.8117   42.4781 C   0  0  0  0  0  0  0  0  0  0  0  0
    9.8147   28.7661   41.7755 C   0  0  0  0  0  0  0  0  0  0  0  0
   10.5795   26.2964   39.1597 O   0  0  0  0  0  0  0  0  0  0  0  0
    9.7322   26.4675   38.7181 H   0  0  0  0  0  0  0  0  0  0  0  0
   12.8058   26.1294   40.6247 O   0  0  0  0  0  0  0  0  0  0  0  0
   13.7193   25.6673   41.6104 C   0  0  0  0  0  0  0  0  0  0  0  0
   11.1784   29.7626   43.6278 C   0  0  0  0  0  0  0  0  0  0  0  0
   12.5852   30.3037   43.9665 C   0  0  0  0  0  0  0  0  0  0  0  0
   13.2351   31.5709   43.3771 C   0  0  0  0  0  0  0  0  0  0  0  0
   13.5237   32.4325   44.6093 C   0  0  0  0  0  0  0  0  0  0  0  0
   13.3906   31.6168   45.7641 O   0  0  0  0  0  0  0  0  0  0  0  0
   12.7550   30.4611   45.4582 C   0  0  0  0  0  0  0  0  0  0  0  0
   12.4140   29.6407   46.2965 O   0  0  0  0  0  0  0  0  0  0  0  0
   12.6068   32.4740   42.3023 C   0  0  0  0  0  0  0  0  0  0  0  0
   12.1321   31.9304   40.9819 C   0  0  0  0  0  0  0  0  0  0  0  0
   13.0714   31.2993   40.1481 C   0  0  0  0  0  0  0  0  0  0  0  0
   12.7603   30.8911   38.8397 C   0  0  0  0  0  0  0  0  0  0  0  0
   11.4779   31.1468   38.3319 C   0  0  0  0  0  0  0  0  0  0  0  0
   10.5343   31.7497   39.1748 C   0  0  0  0  0  0  0  0  0  0  0  0
   10.8468   32.0976   40.4911 C   0  0  0  0  0  0  0  0  0  0  0  0
   11.1889   30.7759   37.0467 O   0  0  0  0  0  0  0  0  0  0  0  0
   10.7921   31.7907   36.1337 C   0  0  0  0  0  0  0  0  0  0  0  0
   13.8191   30.2696   38.2294 O   0  0  0  0  0  0  0  0  0  0  0  0
   14.5341   30.9676   37.2221 C   0  0  0  0  0  0  0  0  0  0  0  0
    7.0338   29.9752   37.1062 O   0  0  0  0  0  0  0  0  0  0  0  0
    6.5285   31.3046   37.1090 C   0  0  0  0  0  0  0  0  0  0  0  0
    4.8714   28.5772   41.3526 C   0  0  0  0  0  0  0  0  0  0  0  0
    4.1363   26.6316   42.8441 C   0  0  0  0  0  0  0  0  0  0  0  0
    2.7597   26.0605   43.1137 C   0  0  0  0  0  0  0  0  0  0  0  0
    1.8497   26.7339   42.2525 O   0  0  0  0  0  0  0  0  0  0  0  0
    2.5116   27.4667   41.3126 C   0  0  0  0  0  0  0  0  0  0  0  0
    1.9237   28.0924   40.4523 O   0  0  0  0  0  0  0  0  0  0  0  0
    4.0079   27.3233   41.4799 C   0  0  0  0  0  0  0  0  0  0  0  0
    4.7213   27.4096   44.0513 C   0  0  0  0  0  0  0  0  0  0  0  0
    8.4057   26.2372   46.0604 C   0  0  0  0  0  0  0  0  0  0  0  0
    8.3271   26.3036   44.6647 C   0  0  0  0  0  0  0  0  0  0  0  0
    7.1146   26.6850   44.0623 C   0  0  0  0  0  0  0  0  0  0  0  0
    5.9591   26.9747   44.8111 C   0  0  0  0  0  0  0  0  0  0  0  0
    6.0621   26.8773   46.1968 C   0  0  0  0  0  0  0  0  0  0  0  0
    7.2716   26.5480   46.8138 C   0  0  0  0  0  0  0  0  0  0  0  0
    9.5758   24.7927   47.5010 C   0  0  0  0  0  0  0  0  0  0  0  0
    9.5986   25.9518   46.6704 O   0  0  0  0  0  0  0  0  0  0  0  0
    9.3195   26.0514   43.7534 O   0  0  0  0  0  0  0  0  0  0  0  0
    9.4517   24.7158   43.2861 C   0  0  0  0  0  0  0  0  0  0  0  0
 53 54  1  0  0  0
 54 47  1  0  0  0
 47 48  2  0  0  0
 48 49  1  0  0  0
 49 50  2  0  0  0
 50 51  1  0  0  0
 51 52  2  0  0  0
 47 52  1  0  0  0
 50 46  1  0  0  0
 46 40  1  0  0  0
 40 41  1  0  0  0
 41 42  1  0  0  0
 42 43  1  0  0  0
 43 44  2  0  0  0
 43 45  1  0  0  0
 40 45  1  0  0  0
 45 39  1  0  0  0
 39  1  1  0  0  0
  1  2  2  0  0  0
  2  3  1  0  0  0
  3  4  2  0  0  0
  4  5  1  0  0  0
  5  6  2  0  0  0
  1  6  1  0  0  0
  5 37  1  0  0  0
 37 38  1  0  0  0
  4  7  1  0  0  0
  3  9  1  0  0  0
  9 10  2  0  0  0
 10 11  1  0  0  0
 11 12  2  0  0  0
 12 13  1  0  0  0
 13 14  2  0  0  0
  9 14  1  0  0  0
 13 19  1  0  0  0
 19 20  1  0  0  0
 20 21  1  0  0  0
 21 22  1  0  0  0
 22 23  1  0  0  0
 23 24  1  0  0  0
 20 24  1  0  0  0
 24 25  2  0  0  0
 21 26  1  0  0  0
 26 27  1  0  0  0
 27 28  2  0  0  0
 28 29  1  0  0  0
 29 30  2  0  0  0
 30 31  1  0  0  0
 31 32  2  0  0  0
 27 32  1  0  0  0
 30 33  1  0  0  0
 33 34  1  0  0  0
 29 35  1  0  0  0
 35 36  1  0  0  0
 11 17  1  0  0  0
 17 18  1  0  0  0
 10 15  1  0  0  0
 48 55  1  0  0  0
 55 56  1  0  0  0
  7  8  1  0  0  0
 15 16  1  0  0  0
M  END
> <minimizedAffinity>
-9.48413

$$$$
mol_3


 49 55  0  0  0  0  0  0  0  0999 V2000
   13.0282   28.2815   42.0627 C   0  0  0  0  0  0  0  0  0  0  0  0
   12.6912   29.6225   42.5401 N   0  0  0  0  0  0  0  0  0  0  0  0
   13.9022   30.4705   42.4632 C   0  0  0  0  0  0  0  0  0  0  0  0
   13.6687   31.9334   42.0929 C   0  0  0  0  0  0  0  0  0  0  0  0
   12.8769   31.9594   40.8146 C   0  0  0  0  0  0  0  0  0  0  0  0
   13.2399   32.7575   39.7361 C   0  0  0  0  0  0  0  0  0  0  0  0
   12.5179   32.6826   38.5444 C   0  0  0  0  0  0  0  0  0  0  0  0
   11.3204   31.9245   38.4963 C   0  0  0  0  0  0  0  0  0  0  0  0
   10.8553   31.2155   39.6392 C   0  0  0  0  0  0  0  0  0  0  0  0
   11.7400   31.1345   40.7410 C   0  0  0  0  0  0  0  0  0  0  0  0
   11.4593   30.2232   41.9326 C   0  0  0  0  0  0  0  0  0  0  0  0
   10.3654   29.1864   41.5672 C   0  0  0  0  0  0  0  0  0  0  0  0
    9.1586   29.8278   40.9152 C   0  0  0  0  0  0  0  0  0  0  0  0
    7.8114   29.5512   41.2489 C   0  0  0  0  0  0  0  0  0  0  0  0
    6.7796   29.9456   40.3775 C   0  0  0  0  0  0  0  0  0  0  0  0
    7.0579   30.6686   39.2267 C   0  0  0  0  0  0  0  0  0  0  0  0
    8.3770   31.0782   39.0032 C   0  0  0  0  0  0  0  0  0  0  0  0
    9.4579   30.6756   39.8126 C   0  0  0  0  0  0  0  0  0  0  0  0
    5.4866   29.6102   40.7019 O   0  0  0  0  0  0  0  0  0  0  0  0
    5.5316   29.1293   41.5491 H   0  0  0  0  0  0  0  0  0  0  0  0
    6.1730   31.0927   38.2721 O   0  0  0  0  0  0  0  0  0  0  0  0
    6.6664   31.1929   36.9409 C   0  0  0  0  0  0  0  0  0  0  0  0
   10.6288   31.7006   37.3253 O   0  0  0  0  0  0  0  0  0  0  0  0
   11.0303   30.5872   36.5352 C   0  0  0  0  0  0  0  0  0  0  0  0
   12.9151   33.3450   37.4107 O   0  0  0  0  0  0  0  0  0  0  0  0
   14.0063   32.7950   36.6830 C   0  0  0  0  0  0  0  0  0  0  0  0
    7.3201   28.8471   42.3328 O   0  0  0  0  0  0  0  0  0  0  0  0
    7.2712   27.4818   42.3495 C   0  0  0  0  0  0  0  0  0  0  0  0
    7.5810   26.6464   41.2817 C   0  0  0  0  0  0  0  0  0  0  0  0
    7.0772   25.3448   41.2923 C   0  0  0  0  0  0  0  0  0  0  0  0
    6.3577   24.8606   42.3964 C   0  0  0  0  0  0  0  0  0  0  0  0
    6.4018   25.6025   43.5732 C   0  0  0  0  0  0  0  0  0  0  0  0
    6.8101   26.9301   43.5375 C   0  0  0  0  0  0  0  0  0  0  0  0
    5.5092   23.6224   42.2123 C   0  0  0  0  0  0  0  0  0  0  0  0
    4.3595   23.5291   41.1361 C   0  0  0  0  0  0  0  0  0  0  0  0
    3.7960   24.9063   40.8046 C   0  0  0  0  0  0  0  0  0  0  0  0
    3.2942   25.7083   41.8518 C   0  0  0  0  0  0  0  0  0  0  0  0
    2.8568   27.0075   41.6182 C   0  0  0  0  0  0  0  0  0  0  0  0
    2.8988   27.4969   40.3125 C   0  0  0  0  0  0  0  0  0  0  0  0
    3.3395   26.7105   39.2536 C   0  0  0  0  0  0  0  0  0  0  0  0
    3.7855   25.4032   39.4922 C   0  0  0  0  0  0  0  0  0  0  0  0
    4.1674   24.5213   38.3347 C   0  0  0  0  0  0  0  0  0  0  0  0
    4.9458   23.2599   38.7246 C   0  0  0  0  0  0  0  0  0  0  0  0
    4.4889   22.6290   39.9628 N   0  0  0  0  0  0  0  0  0  0  0  0
    5.2553   21.4193   40.2329 C   0  0  0  0  0  0  0  0  0  0  0  0
    2.4897   28.7752   40.0459 O   0  0  0  0  0  0  0  0  0  0  0  0
    2.2289   29.1380   40.9146 H   0  0  0  0  0  0  0  0  0  0  0  0
    2.3801   27.8754   42.5666 O   0  0  0  0  0  0  0  0  0  0  0  0
    3.3320   28.3685   43.5054 C   0  0  0  0  0  0  0  0  0  0  0  0
  1  2  1  0  0  0
  2  3  1  0  0  0
  3  4  1  0  0  0
  4  5  1  0  0  0
  5  6  2  0  0  0
  6  7  1  0  0  0
  7  8  2  0  0  0
  8  9  1  0  0  0
  9 10  2  0  0  0
  5 10  1  0  0  0
 10 11  1  0  0  0
  2 11  1  0  0  0
 11 12  1  0  0  0
 12 13  1  0  0  0
 13 14  2  0  0  0
 14 15  1  0  0  0
 15 16  2  0  0  0
 16 17  1  0  0  0
 17 18  2  0  0  0
 13 18  1  0  0  0
  9 18  1  0  0  0
 16 21  1  0  0  0
 21 22  1  0  0  0
 15 19  1  0  0  0
 14 27  1  0  0  0
 27 28  1  0  0  0
 28 29  2  0  0  0
 29 30  1  0  0  0
 30 31  2  0  0  0
 31 32  1  0  0  0
 32 33  2  0  0  0
 28 33  1  0  0  0
 31 34  1  0  0  0
 34 35  1  0  0  0
 35 36  1  0  0  0
 36 37  2  0  0  0
 37 38  1  0  0  0
 38 39  2  0  0  0
 39 40  1  0  0  0
 40 41  2  0  0  0
 36 41  1  0  0  0
 41 42  1  0  0  0
 42 43  1  0  0  0
 43 44  1  0  0  0
 35 44  1  0  0  0
 44 45  1  0  0  0
 39 46  1  0  0  0
 38 48  1  0  0  0
 48 49  1  0  0  0
  8 23  1  0  0  0
 23 24  1  0  0  0
  7 25  1  0  0  0
 25 26  1  0  0  0
 19 20  1  0  0  0
 46 47  1  0  0  0
M  END
> <minimizedAffinity>
-9.97917

$$$$
mol_4


 39 41  0  0  0  0  0  0  0  0999 V2000
   12.9083   28.7927   40.1292 O   0  0  0  0  0  0  0  0  0  0  0  0
   12.9199   29.7189   41.5591 P   0  0  0  0  0  0  0  0  0  0  0  0
   14.3671   29.7936   42.0597 O   0  0  0  0  0  0  0  0  0  0  0  0
   12.7327   28.2151   42.4929 N   0  0  0  0  0  0  0  0  0  0  0  0
   13.5234   27.5804   42.5123 H   0  0  0  0  0  0  0  0  0  0  0  0
   11.8455   28.2731   43.6531 C   0  0  0  0  0  0  0  0  0  0  0  0
   10.6919   29.2447   43.4556 C   0  0  0  0  0  0  0  0  0  0  0  0
   12.6183   28.6404   44.9207 C   0  0  0  0  0  0  0  0  0  0  0  0
   13.4077   27.9104   45.5053 O   0  0  0  0  0  0  0  0  0  0  0  0
   12.3089   29.9212   45.2809 O   0  0  0  0  0  0  0  0  0  0  0  0
   14.2603   31.2614   45.0186 C   0  0  0  0  0  0  0  0  0  0  0  0
   13.2999   30.6469   46.0331 C   0  0  0  0  0  0  0  0  0  0  0  0
   12.6401   31.7412   46.8644 C   0  0  0  0  0  0  0  0  0  0  0  0
   13.1018   31.1804   40.6516 O   0  0  0  0  0  0  0  0  0  0  0  0
   13.1633   32.3662   41.3393 C   0  0  0  0  0  0  0  0  0  0  0  0
   14.2278   33.2566   41.2089 C   0  0  0  0  0  0  0  0  0  0  0  0
   14.2766   34.3935   42.0180 C   0  0  0  0  0  0  0  0  0  0  0  0
   13.2574   34.6434   42.9377 C   0  0  0  0  0  0  0  0  0  0  0  0
   12.1771   33.7669   43.0380 C   0  0  0  0  0  0  0  0  0  0  0  0
   12.1262   32.6300   42.2318 C   0  0  0  0  0  0  0  0  0  0  0  0
   11.8222   28.9523   39.2018 C   0  0  0  0  0  0  0  0  0  0  0  0
   12.1563   29.4363   37.7845 C   0  0  0  0  0  0  0  0  0  0  0  0
   11.2049   30.5804   37.3849 C   0  0  0  0  0  0  0  0  0  0  0  0
   12.0048   31.3264   36.3358 C   0  0  0  0  0  0  0  0  0  0  0  0
   13.4205   31.2428   36.9292 C   0  0  0  0  0  0  0  0  0  0  0  0
   13.4914   30.0174   37.7154 O   0  0  0  0  0  0  0  0  0  0  0  0
   11.5168   32.7371   36.0493 C   0  0  0  0  0  0  0  0  0  0  0  0
   11.9307   30.6094   35.1742 F   0  0  0  0  0  0  0  0  0  0  0  0
   10.8562   31.4388   38.4803 O   0  0  0  0  0  0  0  0  0  0  0  0
   11.6538   31.6968   38.9773 H   0  0  0  0  0  0  0  0  0  0  0  0
   14.4983   31.2880   35.9404 N   0  0  0  0  0  0  0  0  0  0  0  0
   14.8519   30.1518   35.2400 C   0  0  0  0  0  0  0  0  0  0  0  0
   15.7998   30.1631   34.3002 C   0  0  0  0  0  0  0  0  0  0  0  0
   16.4956   31.4240   34.0108 C   0  0  0  0  0  0  0  0  0  0  0  0
   17.3931   31.4760   33.1737 O   0  0  0  0  0  0  0  0  0  0  0  0
   16.0770   32.5093   34.7208 N   0  0  0  0  0  0  0  0  0  0  0  0
   15.0864   32.5182   35.6705 C   0  0  0  0  0  0  0  0  0  0  0  0
   14.7620   33.5689   36.2186 O   0  0  0  0  0  0  0  0  0  0  0  0
   16.5305   33.3879   34.5237 H   0  0  0  0  0  0  0  0  0  0  0  0
 11 12  1  0  0  0
 12 13  1  0  0  0
 12 10  1  0  0  0
 10  8  1  0  0  0
  8  9  2  0  0  0
  8  6  1  0  0  0
  6  7  1  0  0  0
  6  4  1  0  0  0
  4  2  1  0  0  0
  2  3  2  0  0  0
  2  1  1  0  0  0
  1 21  1  0  0  0
 21 22  1  0  0  0
 22 23  1  0  0  0
 23 24  1  0  0  0
 24 25  1  0  0  0
 25 26  1  0  0  0
 22 26  1  0  0  0
 25 31  1  0  0  0
 31 32  1  0  0  0
 32 33  2  0  0  0
 33 34  1  0  0  0
 34 35  2  0  0  0
 34 36  1  0  0  0
 36 37  1  0  0  0
 31 37  1  0  0  0
 37 38  2  0  0  0
 24 27  1  0  0  0
 24 28  1  0  0  0
 23 29  1  0  0  0
  2 14  1  0  0  0
 14 15  1  0  0  0
 15 16  2  0  0  0
 16 17  1  0  0  0
 17 18  2  0  0  0
 18 19  1  0  0  0
 19 20  2  0  0  0
 15 20  1  0  0  0
  4  5  1  0  0  0
 36 39  1  0  0  0
 29 30  1  0  0  0
M  END
> <minimizedAffinity>
-8.36812

$$$$
