mol_0


 47 50  0  0  0  0  0  0  0  0999 V2000
   11.1792   30.2677   39.6011 C   0  0  0  0  0  0  0  0  0  0  0  0
   10.0433   29.8417   39.1595 N   0  0  0  0  0  0  0  0  0  0  0  0
    9.2813   30.3186   37.9494 C   0  0  0  0  0  0  0  0  0  0  0  0
    7.8511   29.7878   38.1741 C   0  0  0  0  0  0  0  0  0  0  0  0
    8.1041   28.6079   39.0728 C   0  0  0  0  0  0  0  0  0  0  0  0
    7.2711   27.5218   39.3639 C   0  0  0  0  0  0  0  0  0  0  0  0
    7.8190   26.4361   40.0576 C   0  0  0  0  0  0  0  0  0  0  0  0
    9.1848   26.4574   40.3425 C   0  0  0  0  0  0  0  0  0  0  0  0
    9.9654   27.5916   40.2241 C   0  0  0  0  0  0  0  0  0  0  0  0
    9.4005   28.6729   39.5876 C   0  0  0  0  0  0  0  0  0  0  0  0
    9.8682   25.3029   40.5805 O   0  0  0  0  0  0  0  0  0  0  0  0
    9.5167   24.6645   39.9285 H   0  0  0  0  0  0  0  0  0  0  0  0
   13.5045   31.8370   40.6784 C   0  0  0  0  0  0  0  0  0  0  0  0
   14.5657   32.6760   41.4238 C   0  0  0  0  0  0  0  0  0  0  0  0
   15.0599   32.0401   42.6674 N   0  0  0  0  0  0  0  0  0  0  0  0
   14.4935   30.8951   43.2099 C   0  0  0  0  0  0  0  0  0  0  0  0
   13.4677   30.2408   42.6482 C   0  0  0  0  0  0  0  0  0  0  0  0
   12.8719   30.6569   41.3903 C   0  0  0  0  0  0  0  0  0  0  0  0
   11.8001   29.9862   40.9257 C   0  0  0  0  0  0  0  0  0  0  0  0
   15.2905   32.7550   43.3715 H   0  0  0  0  0  0  0  0  0  0  0  0
   15.0212   30.3321   44.5057 C   0  0  0  0  0  0  0  0  0  0  0  0
   14.3327   29.9003   45.4188 O   0  0  0  0  0  0  0  0  0  0  0  0
   16.3712   30.3324   44.5149 O   0  0  0  0  0  0  0  0  0  0  0  0
   16.7112   30.5682   43.6288 H   0  0  0  0  0  0  0  0  0  0  0  0
   14.1100   34.1111   41.7568 C   0  0  0  0  0  0  0  0  0  0  0  0
   13.9456   34.4848   42.9152 O   0  0  0  0  0  0  0  0  0  0  0  0
   14.0142   34.9706   40.7230 O   0  0  0  0  0  0  0  0  0  0  0  0
   14.1612   34.6366   39.8177 H   0  0  0  0  0  0  0  0  0  0  0  0
    9.3303   31.8300   37.7505 C   0  0  0  0  0  0  0  0  0  0  0  0
   10.1829   32.2588   36.9240 O   0  0  0  0  0  0  0  0  0  0  0  0
    8.4551   32.4576   38.4009 O   0  0  0  0  0  0  0  0  0  0  0  0
    7.1289   25.2696   40.1763 O   0  0  0  0  0  0  0  0  0  0  0  0
    5.6841   25.2463   39.9646 C   0  0  0  0  0  0  0  0  0  0  0  0
    5.2403   23.8491   39.4555 C   0  0  0  0  0  0  0  0  0  0  0  0
    4.8711   22.9080   40.6073 C   0  0  0  0  0  0  0  0  0  0  0  0
    3.8822   23.5731   41.5667 C   0  0  0  0  0  0  0  0  0  0  0  0
    4.3139   24.9851   41.9991 C   0  0  0  0  0  0  0  0  0  0  0  0
    4.7937   25.8142   40.9306 O   0  0  0  0  0  0  0  0  0  0  0  0
    2.5954   23.5710   40.9220 O   0  0  0  0  0  0  0  0  0  0  0  0
    4.2954   21.6911   40.1043 O   0  0  0  0  0  0  0  0  0  0  0  0
    6.2329   23.2638   38.6002 O   0  0  0  0  0  0  0  0  0  0  0  0
    2.5448   24.3268   40.3085 H   0  0  0  0  0  0  0  0  0  0  0  0
    3.3244   21.8113   40.1318 H   0  0  0  0  0  0  0  0  0  0  0  0
    7.0721   23.2244   39.0887 H   0  0  0  0  0  0  0  0  0  0  0  0
    3.1477   25.7171   42.7040 C   0  0  0  0  0  0  0  0  0  0  0  0
    2.3945   24.8564   43.5576 O   0  0  0  0  0  0  0  0  0  0  0  0
    2.4782   23.9455   43.2363 H   0  0  0  0  0  0  0  0  0  0  0  0
 13 14  1  0  0  0
 14 15  1  0  0  0
 15 16  1  0  0  0
 16 17  2  0  0  0
 17 18  1  0  0  0
 13 18  1  0  0  0
 18 19  2  0  0  0
 19  1  1  0  0  0
  1  2  2  0  0  0
  2  3  1  0  0  0
  3  4  1  0  0  0
  4  5  1  0  0  0
  5  6  2  0  0  0
  6  7  1  0  0  0
  7  8  2  0  0  0
  8  9  1  0  0  0
  9 10  2  0  0  0
  5 10  1  0  0  0
  2 10  1  0  0  0
  8 11  1  0  0  0
  7 32  1  0  0  0
 32 33  1  0  0  0
 33 34  1  0  0  0
 34 35  1  0  0  0
 35 36  1  0  0  0
 36 37  1  0  0  0
 37 38  1  0  0  0
 33 38  1  0  0  0
 37 45  1  0  0  0
 45 46  1  0  0  0
 36 39  1  0  0  0
 35 40  1  0  0  0
 34 41  1  0  0  0
  3 29  1  0  0  0
 29 30  2  0  0  0
 29 31  1  0  0  0
 16 21  1  0  0  0
 21 22  2  0  0  0
 21 23  1  0  0  0
 14 25  1  0  0  0
 25 26  2  0  0  0
 25 27  1  0  0  0
 15 20  1  0  0  0
 11 12  1  0  0  0
 46 47  1  0  0  0
 39 42  1  0  0  0
 40 43  1  0  0  0
 41 44  1  0  0  0
 23 24  1  0  0  0
 27 28  1  0  0  0
M  CHG 1   2   1
M  CHG 1  31  -1
M  END
> <minimizedAffinity>
-10.84470

$$$$
mol_1


 53 59  0  0  0  0  0  0  0  0999 V2000
   11.8866   28.0445   30.7099 C   0  0  0  0  0  0  0  0  0  0  0  0
   12.1252   29.0336   29.6558 N   0  0  0  0  0  0  0  0  0  0  0  0
   12.1720   28.3407   28.3541 C   0  0  0  0  0  0  0  0  0  0  0  0
   13.1138   28.9704   27.3316 C   0  0  0  0  0  0  0  0  0  0  0  0
   14.4951   28.9892   27.9460 C   0  0  0  0  0  0  0  0  0  0  0  0
   14.5835   29.5147   29.2639 C   0  0  0  0  0  0  0  0  0  0  0  0
   13.2706   29.9761   29.8931 C   0  0  0  0  0  0  0  0  0  0  0  0
   13.3855   30.4394   31.3588 C   0  0  0  0  0  0  0  0  0  0  0  0
   14.7316   30.9629   31.8012 C   0  0  0  0  0  0  0  0  0  0  0  0
   14.7953   31.7353   32.9924 C   0  0  0  0  0  0  0  0  0  0  0  0
   16.0078   31.8063   33.6905 C   0  0  0  0  0  0  0  0  0  0  0  0
   17.1849   31.4677   33.0474 C   0  0  0  0  0  0  0  0  0  0  0  0
   17.1151   30.8539   31.7906 C   0  0  0  0  0  0  0  0  0  0  0  0
   15.9034   30.4806   31.1759 C   0  0  0  0  0  0  0  0  0  0  0  0
   15.8340   29.6778   29.9028 C   0  0  0  0  0  0  0  0  0  0  0  0
   16.9621   29.0986   29.2388 C   0  0  0  0  0  0  0  0  0  0  0  0
   16.8746   28.5392   27.9319 C   0  0  0  0  0  0  0  0  0  0  0  0
   15.6373   28.5357   27.2838 C   0  0  0  0  0  0  0  0  0  0  0  0
   15.5183   28.0660   26.0054 O   0  0  0  0  0  0  0  0  0  0  0  0
   16.0440   32.1369   35.0206 O   0  0  0  0  0  0  0  0  0  0  0  0
   14.7701   27.4481   25.9858 H   0  0  0  0  0  0  0  0  0  0  0  0
   15.1333   32.0923   35.3576 H   0  0  0  0  0  0  0  0  0  0  0  0
   18.0396   28.0198   27.4271 O   0  0  0  0  0  0  0  0  0  0  0  0
   18.2229   26.6177   27.3344 C   0  0  0  0  0  0  0  0  0  0  0  0
   18.1122   28.9359   29.9903 O   0  0  0  0  0  0  0  0  0  0  0  0
   18.1959   27.7558   30.7875 C   0  0  0  0  0  0  0  0  0  0  0  0
   18.4629   31.6240   33.5193 O   0  0  0  0  0  0  0  0  0  0  0  0
   19.2594   30.4476   33.5983 C   0  0  0  0  0  0  0  0  0  0  0  0
   13.6098   32.3152   33.4194 O   0  0  0  0  0  0  0  0  0  0  0  0
   12.8346   31.7190   34.3973 C   0  0  0  0  0  0  0  0  0  0  0  0
   12.9858   30.4173   34.8755 C   0  0  0  0  0  0  0  0  0  0  0  0
   11.9118   29.7858   35.5126 C   0  0  0  0  0  0  0  0  0  0  0  0
   10.7263   30.4841   35.7738 C   0  0  0  0  0  0  0  0  0  0  0  0
   10.7357   31.8697   35.5849 C   0  0  0  0  0  0  0  0  0  0  0  0
   11.7613   32.4775   34.8552 C   0  0  0  0  0  0  0  0  0  0  0  0
    9.4819   29.7328   36.2109 C   0  0  0  0  0  0  0  0  0  0  0  0
    9.0324   29.7866   37.7255 C   0  0  0  0  0  0  0  0  0  0  0  0
   10.2352   29.8683   38.6561 C   0  0  0  0  0  0  0  0  0  0  0  0
   11.0369   28.7309   38.8671 C   0  0  0  0  0  0  0  0  0  0  0  0
   12.2202   28.7926   39.6175 C   0  0  0  0  0  0  0  0  0  0  0  0
   12.6536   30.0351   40.0971 C   0  0  0  0  0  0  0  0  0  0  0  0
   11.8178   31.1555   39.9212 C   0  0  0  0  0  0  0  0  0  0  0  0
   10.5955   31.0848   39.2480 C   0  0  0  0  0  0  0  0  0  0  0  0
    9.6761   32.2781   39.1741 C   0  0  0  0  0  0  0  0  0  0  0  0
    8.4420   32.1067   38.2704 C   0  0  0  0  0  0  0  0  0  0  0  0
    7.9740   30.7244   38.1551 N   0  0  0  0  0  0  0  0  0  0  0  0
    6.7537   30.6336   37.3660 C   0  0  0  0  0  0  0  0  0  0  0  0
   12.2327   32.3755   40.4009 O   0  0  0  0  0  0  0  0  0  0  0  0
   13.1157   32.2024   40.7828 H   0  0  0  0  0  0  0  0  0  0  0  0
   13.8178   30.3405   40.7617 O   0  0  0  0  0  0  0  0  0  0  0  0
   13.9131   30.0130   42.1406 C   0  0  0  0  0  0  0  0  0  0  0  0
   12.9840   27.6756   39.8315 O   0  0  0  0  0  0  0  0  0  0  0  0
   12.5132   26.7906   40.8457 C   0  0  0  0  0  0  0  0  0  0  0  0
  1  2  1  0  0  0
  2  3  1  0  0  0
  3  4  1  0  0  0
  4  5  1  0  0  0
  5  6  2  0  0  0
  6  7  1  0  0  0
  2  7  1  0  0  0
  7  8  1  0  0  0
  8  9  1  0  0  0
  9 10  2  0  0  0
 10 11  1  0  0  0
 11 12  2  0  0  0
 12 13  1  0  0  0
 13 14  2  0  0  0
  9 14  1  0  0  0
 14 15  1  0  0  0
  6 15  1  0  0  0
 15 16  2  0  0  0
 16 17  1  0  0  0
 17 18  2  0  0  0
  5 18  1  0  0  0
 18 19  1  0  0  0
 17 23  1  0  0  0
 23 24  1  0  0  0
 16 25  1  0  0  0
 25 26  1  0  0  0
 12 27  1  0  0  0
 27 28  1  0  0  0
 11 20  1  0  0  0
 10 29  1  0  0  0
 29 30  1  0  0  0
 30 31  2  0  0  0
 31 32  1  0  0  0
 32 33  2  0  0  0
 33 34  1  0  0  0
 34 35  2  0  0  0
 30 35  1  0  0  0
 33 36  1  0  0  0
 36 37  1  0  0  0
 37 38  1  0  0  0
 38 39  2  0  0  0
 39 40  1  0  0  0
 40 41  2  0  0  0
 41 42  1  0  0  0
 42 43  2  0  0  0
 38 43  1  0  0  0
 43 44  1  0  0  0
 44 45  1  0  0  0
 45 46  1  0  0  0
 37 46  1  0  0  0
 46 47  1  0  0  0
 42 48  1  0  0  0
 41 50  1  0  0  0
 50 51  1  0  0  0
 40 52  1  0  0  0
 52 53  1  0  0  0
 19 21  1  0  0  0
 20 22  1  0  0  0
 48 49  1  0  0  0
M  END
> <minimizedAffinity>
-11.04604

$$$$
mol_2


 56 61  0  0  0  0  0  0  0  0999 V2000
   11.2645   25.1615   43.8245 C   0  0  0  0  0  0  0  0  0  0  0  0
   11.4631   26.4138   43.2529 C   0  0  0  0  0  0  0  0  0  0  0  0
   12.5555   26.6316   42.4085 C   0  0  0  0  0  0  0  0  0  0  0  0
   13.5331   25.6228   42.2725 C   0  0  0  0  0  0  0  0  0  0  0  0
   13.3463   24.3570   42.8340 C   0  0  0  0  0  0  0  0  0  0  0  0
   12.1907   24.1327   43.5791 C   0  0  0  0  0  0  0  0  0  0  0  0
   14.6565   25.8352   41.5094 O   0  0  0  0  0  0  0  0  0  0  0  0
   14.8063   26.7947   41.4581 H   0  0  0  0  0  0  0  0  0  0  0  0
   12.4320   27.7120   41.4287 C   0  0  0  0  0  0  0  0  0  0  0  0
   11.7961   27.6334   40.1874 C   0  0  0  0  0  0  0  0  0  0  0  0
   11.8114   28.7332   39.3128 C   0  0  0  0  0  0  0  0  0  0  0  0
   12.4038   29.9342   39.7304 C   0  0  0  0  0  0  0  0  0  0  0  0
   13.0222   30.0383   40.9849 C   0  0  0  0  0  0  0  0  0  0  0  0
   13.0943   28.9016   41.7749 C   0  0  0  0  0  0  0  0  0  0  0  0
   11.1665   26.4835   39.7842 O   0  0  0  0  0  0  0  0  0  0  0  0
   11.2143   25.8248   40.4956 H   0  0  0  0  0  0  0  0  0  0  0  0
   11.2197   28.5463   38.0895 O   0  0  0  0  0  0  0  0  0  0  0  0
   11.5890   29.4385   37.0468 C   0  0  0  0  0  0  0  0  0  0  0  0
   13.6348   31.3278   41.4507 C   0  0  0  0  0  0  0  0  0  0  0  0
   12.7357   32.5677   41.6534 C   0  0  0  0  0  0  0  0  0  0  0  0
   11.4081   32.6066   42.4355 C   0  0  0  0  0  0  0  0  0  0  0  0
   11.6628   33.6534   43.5230 C   0  0  0  0  0  0  0  0  0  0  0  0
   12.8401   34.3712   43.1833 O   0  0  0  0  0  0  0  0  0  0  0  0
   13.5304   33.7206   42.2172 C   0  0  0  0  0  0  0  0  0  0  0  0
   14.6359   34.0693   41.8320 O   0  0  0  0  0  0  0  0  0  0  0  0
   10.7283   31.3938   43.0930 C   0  0  0  0  0  0  0  0  0  0  0  0
    9.8142   30.4781   42.3247 C   0  0  0  0  0  0  0  0  0  0  0  0
    9.1260   31.0042   41.2177 C   0  0  0  0  0  0  0  0  0  0  0  0
    8.1432   30.2739   40.5275 C   0  0  0  0  0  0  0  0  0  0  0  0
    7.8118   28.9857   40.9729 C   0  0  0  0  0  0  0  0  0  0  0  0
    8.5196   28.4522   42.0585 C   0  0  0  0  0  0  0  0  0  0  0  0
    9.5320   29.1732   42.6963 C   0  0  0  0  0  0  0  0  0  0  0  0
    6.8322   28.2903   40.3173 O   0  0  0  0  0  0  0  0  0  0  0  0
    7.2301   27.2386   39.4475 C   0  0  0  0  0  0  0  0  0  0  0  0
    7.6336   30.9744   39.4648 O   0  0  0  0  0  0  0  0  0  0  0  0
    8.2156   30.7931   38.1836 C   0  0  0  0  0  0  0  0  0  0  0  0
   14.2911   23.4063   42.5491 O   0  0  0  0  0  0  0  0  0  0  0  0
   15.1574   23.0200   43.6088 C   0  0  0  0  0  0  0  0  0  0  0  0
    9.9781   24.8592   44.5364 C   0  0  0  0  0  0  0  0  0  0  0  0
    8.0776   26.4392   45.2013 C   0  0  0  0  0  0  0  0  0  0  0  0
    7.4205   26.6819   46.5440 C   0  0  0  0  0  0  0  0  0  0  0  0
    8.1482   25.9323   47.5093 O   0  0  0  0  0  0  0  0  0  0  0  0
    9.3144   25.4572   46.9870 C   0  0  0  0  0  0  0  0  0  0  0  0
   10.1063   24.8202   47.6535 O   0  0  0  0  0  0  0  0  0  0  0  0
    9.4679   25.8870   45.5450 C   0  0  0  0  0  0  0  0  0  0  0  0
    7.1679   25.6730   44.2063 C   0  0  0  0  0  0  0  0  0  0  0  0
    3.7147   27.2791   42.0892 C   0  0  0  0  0  0  0  0  0  0  0  0
    4.2021   25.9955   41.8185 C   0  0  0  0  0  0  0  0  0  0  0  0
    5.3215   25.5222   42.5266 C   0  0  0  0  0  0  0  0  0  0  0  0
    5.9956   26.3051   43.4819 C   0  0  0  0  0  0  0  0  0  0  0  0
    5.5009   27.5866   43.7126 C   0  0  0  0  0  0  0  0  0  0  0  0
    4.3609   28.0546   43.0542 C   0  0  0  0  0  0  0  0  0  0  0  0
    2.7857   28.2974   40.1836 C   0  0  0  0  0  0  0  0  0  0  0  0
    2.5757   27.7274   41.4740 O   0  0  0  0  0  0  0  0  0  0  0  0
    3.7094   25.0797   40.9254 O   0  0  0  0  0  0  0  0  0  0  0  0
    4.5945   24.6104   39.9174 C   0  0  0  0  0  0  0  0  0  0  0  0
 53 54  1  0  0  0
 54 47  1  0  0  0
 47 48  2  0  0  0
 48 49  1  0  0  0
 49 50  2  0  0  0
 50 51  1  0  0  0
 51 52  2  0  0  0
 47 52  1  0  0  0
 50 46  1  0  0  0
 46 40  1  0  0  0
 40 41  1  0  0  0
 41 42  1  0  0  0
 42 43  1  0  0  0
 43 44  2  0  0  0
 43 45  1  0  0  0
 40 45  1  0  0  0
 45 39  1  0  0  0
 39  1  1  0  0  0
  1  2  2  0  0  0
  2  3  1  0  0  0
  3  4  2  0  0  0
  4  5  1  0  0  0
  5  6  2  0  0  0
  1  6  1  0  0  0
  5 37  1  0  0  0
 37 38  1  0  0  0
  4  7  1  0  0  0
  3  9  1  0  0  0
  9 10  2  0  0  0
 10 11  1  0  0  0
 11 12  2  0  0  0
 12 13  1  0  0  0
 13 14  2  0  0  0
  9 14  1  0  0  0
 13 19  1  0  0  0
 19 20  1  0  0  0
 20 21  1  0  0  0
 21 22  1  0  0  0
 22 23  1  0  0  0
 23 24  1  0  0  0
 20 24  1  0  0  0
 24 25  2  0  0  0
 21 26  1  0  0  0
 26 27  1  0  0  0
 27 28  2  0  0  0
 28 29  1  0  0  0
 29 30  2  0  0  0
 30 31  1  0  0  0
 31 32  2  0  0  0
 27 32  1  0  0  0
 30 33  1  0  0  0
 33 34  1  0  0  0
 29 35  1  0  0  0
 35 36  1  0  0  0
 11 17  1  0  0  0
 17 18  1  0  0  0
 10 15  1  0  0  0
 48 55  1  0  0  0
 55 56  1  0  0  0
  7  8  1  0  0  0
 15 16  1  0  0  0
M  END
> <minimizedAffinity>
-9.30184

$$$$
mol_3


 49 55  0  0  0  0  0  0  0  0999 V2000
   13.0681   28.2743   42.0652 C   0  0  0  0  0  0  0  0  0  0  0  0
   12.7368   29.6162   42.5438 N   0  0  0  0  0  0  0  0  0  0  0  0
   13.9519   30.4586   42.4698 C   0  0  0  0  0  0  0  0  0  0  0  0
   13.7258   31.9231   42.1011 C   0  0  0  0  0  0  0  0  0  0  0  0
   12.9361   31.9544   40.8216 C   0  0  0  0  0  0  0  0  0  0  0  0
   13.3045   32.7522   39.7447 C   0  0  0  0  0  0  0  0  0  0  0  0
   12.5840   32.6822   38.5518 C   0  0  0  0  0  0  0  0  0  0  0  0
   11.3830   31.9298   38.5009 C   0  0  0  0  0  0  0  0  0  0  0  0
   10.9128   31.2216   39.6422 C   0  0  0  0  0  0  0  0  0  0  0  0
   11.7955   31.1350   40.7453 C   0  0  0  0  0  0  0  0  0  0  0  0
   11.5087   30.2235   41.9352 C   0  0  0  0  0  0  0  0  0  0  0  0
   10.4104   29.1924   41.5669 C   0  0  0  0  0  0  0  0  0  0  0  0
    9.2076   29.8403   40.9139 C   0  0  0  0  0  0  0  0  0  0  0  0
    7.8586   29.5696   41.2452 C   0  0  0  0  0  0  0  0  0  0  0  0
    6.8300   29.9701   40.3727 C   0  0  0  0  0  0  0  0  0  0  0  0
    7.1135   30.6932   39.2233 C   0  0  0  0  0  0  0  0  0  0  0  0
    8.4348   31.0969   39.0023 C   0  0  0  0  0  0  0  0  0  0  0  0
    9.5126   30.6881   39.8128 C   0  0  0  0  0  0  0  0  0  0  0  0
    5.5349   29.6404   40.6948 O   0  0  0  0  0  0  0  0  0  0  0  0
    5.5764   29.1582   41.5414 H   0  0  0  0  0  0  0  0  0  0  0  0
    6.2320   31.1228   38.2680 O   0  0  0  0  0  0  0  0  0  0  0  0
    6.6993   31.1328   36.9237 C   0  0  0  0  0  0  0  0  0  0  0  0
   10.6921   31.7107   37.3286 O   0  0  0  0  0  0  0  0  0  0  0  0
   11.0898   30.5968   36.5374 C   0  0  0  0  0  0  0  0  0  0  0  0
   12.9860   33.3442   37.4195 O   0  0  0  0  0  0  0  0  0  0  0  0
   14.0742   32.7886   36.6915 C   0  0  0  0  0  0  0  0  0  0  0  0
    7.3624   28.8665   42.3274 O   0  0  0  0  0  0  0  0  0  0  0  0
    7.3054   27.5016   42.3416 C   0  0  0  0  0  0  0  0  0  0  0  0
    7.6014   26.6666   41.2695 C   0  0  0  0  0  0  0  0  0  0  0  0
    7.0899   25.3680   41.2815 C   0  0  0  0  0  0  0  0  0  0  0  0
    6.3767   24.8857   42.3905 C   0  0  0  0  0  0  0  0  0  0  0  0
    6.4349   25.6248   43.5685 C   0  0  0  0  0  0  0  0  0  0  0  0
    6.8508   26.9500   43.5322 C   0  0  0  0  0  0  0  0  0  0  0  0
    5.5193   23.6530   42.2108 C   0  0  0  0  0  0  0  0  0  0  0  0
    4.3579   23.5701   41.1463 C   0  0  0  0  0  0  0  0  0  0  0  0
    3.8021   24.9521   40.8221 C   0  0  0  0  0  0  0  0  0  0  0  0
    3.3175   25.7569   41.8753 C   0  0  0  0  0  0  0  0  0  0  0  0
    2.8881   27.0598   41.6477 C   0  0  0  0  0  0  0  0  0  0  0  0
    2.9206   27.5504   40.3422 C   0  0  0  0  0  0  0  0  0  0  0  0
    3.3442   26.7618   39.2779 C   0  0  0  0  0  0  0  0  0  0  0  0
    3.7821   25.4508   39.5105 C   0  0  0  0  0  0  0  0  0  0  0  0
    4.1451   24.5672   38.3481 C   0  0  0  0  0  0  0  0  0  0  0  0
    4.9173   23.2992   38.7286 C   0  0  0  0  0  0  0  0  0  0  0  0
    4.4681   22.6705   39.9708 N   0  0  0  0  0  0  0  0  0  0  0  0
    5.2275   21.4544   40.2317 C   0  0  0  0  0  0  0  0  0  0  0  0
    2.5190   28.8323   40.0812 O   0  0  0  0  0  0  0  0  0  0  0  0
    2.2700   29.1961   40.9529 H   0  0  0  0  0  0  0  0  0  0  0  0
    2.4280   27.9303   42.6019 O   0  0  0  0  0  0  0  0  0  0  0  0
    3.2979   28.1755   43.7036 C   0  0  0  0  0  0  0  0  0  0  0  0
  1  2  1  0  0  0
  2  3  1  0  0  0
  3  4  1  0  0  0
  4  5  1  0  0  0
  5  6  2  0  0  0
  6  7  1  0  0  0
  7  8  2  0  0  0
  8  9  1  0  0  0
  9 10  2  0  0  0
  5 10  1  0  0  0
 10 11  1  0  0  0
  2 11  1  0  0  0
 11 12  1  0  0  0
 12 13  1  0  0  0
 13 14  2  0  0  0
 14 15  1  0  0  0
 15 16  2  0  0  0
 16 17  1  0  0  0
 17 18  2  0  0  0
 13 18  1  0  0  0
  9 18  1  0  0  0
 16 21  1  0  0  0
 21 22  1  0  0  0
 15 19  1  0  0  0
 14 27  1  0  0  0
 27 28  1  0  0  0
 28 29  2  0  0  0
 29 30  1  0  0  0
 30 31  2  0  0  0
 31 32  1  0  0  0
 32 33  2  0  0  0
 28 33  1  0  0  0
 31 34  1  0  0  0
 34 35  1  0  0  0
 35 36  1  0  0  0
 36 37  2  0  0  0
 37 38  1  0  0  0
 38 39  2  0  0  0
 39 40  1  0  0  0
 40 41  2  0  0  0
 36 41  1  0  0  0
 41 42  1  0  0  0
 42 43  1  0  0  0
 43 44  1  0  0  0
 35 44  1  0  0  0
 44 45  1  0  0  0
 39 46  1  0  0  0
 38 48  1  0  0  0
 48 49  1  0  0  0
  8 23  1  0  0  0
 23 24  1  0  0  0
  7 25  1  0  0  0
 25 26  1  0  0  0
 19 20  1  0  0  0
 46 47  1  0  0  0
M  END
> <minimizedAffinity>
-9.99390

$$$$
mol_4


 39 41  0  0  0  0  0  0  0  0999 V2000
   10.6737   31.1833   38.9446 O   0  0  0  0  0  0  0  0  0  0  0  0
    9.3957   31.5214   40.0194 P   0  0  0  0  0  0  0  0  0  0  0  0
    8.6382   32.7407   39.4811 O   0  0  0  0  0  0  0  0  0  0  0  0
   10.4706   32.6422   40.8894 N   0  0  0  0  0  0  0  0  0  0  0  0
   10.1823   33.6130   40.9426 H   0  0  0  0  0  0  0  0  0  0  0  0
   11.2526   32.0770   41.9873 C   0  0  0  0  0  0  0  0  0  0  0  0
   11.1467   32.9008   43.2617 C   0  0  0  0  0  0  0  0  0  0  0  0
   12.7224   31.9208   41.5945 C   0  0  0  0  0  0  0  0  0  0  0  0
   13.2937   32.5602   40.7212 O   0  0  0  0  0  0  0  0  0  0  0  0
   13.3028   30.9750   42.3909 O   0  0  0  0  0  0  0  0  0  0  0  0
   14.2276   31.1465   44.5791 C   0  0  0  0  0  0  0  0  0  0  0  0
   14.5015   31.3564   43.0926 C   0  0  0  0  0  0  0  0  0  0  0  0
   15.6762   30.4936   42.6459 C   0  0  0  0  0  0  0  0  0  0  0  0
    8.3510   30.4320   39.1739 O   0  0  0  0  0  0  0  0  0  0  0  0
    7.1140   30.1748   39.7090 C   0  0  0  0  0  0  0  0  0  0  0  0
    5.9293   30.4223   39.0172 C   0  0  0  0  0  0  0  0  0  0  0  0
    4.7048   30.2367   39.6619 C   0  0  0  0  0  0  0  0  0  0  0  0
    4.6691   29.7903   40.9834 C   0  0  0  0  0  0  0  0  0  0  0  0
    5.8573   29.5104   41.6582 C   0  0  0  0  0  0  0  0  0  0  0  0
    7.0819   29.6958   41.0172 C   0  0  0  0  0  0  0  0  0  0  0  0
   10.6860   29.9274   38.2463 C   0  0  0  0  0  0  0  0  0  0  0  0
   11.6342   29.7836   37.0485 C   0  0  0  0  0  0  0  0  0  0  0  0
   11.1701   30.7011   35.9011 C   0  0  0  0  0  0  0  0  0  0  0  0
   12.4488   30.9290   35.1201 C   0  0  0  0  0  0  0  0  0  0  0  0
   13.4746   31.0420   36.2596 C   0  0  0  0  0  0  0  0  0  0  0  0
   12.9810   30.2384   37.3711 O   0  0  0  0  0  0  0  0  0  0  0  0
   12.4127   32.1192   34.1755 C   0  0  0  0  0  0  0  0  0  0  0  0
   12.6830   29.8060   34.3763 F   0  0  0  0  0  0  0  0  0  0  0  0
   10.6108   31.9415   36.3558 O   0  0  0  0  0  0  0  0  0  0  0  0
   11.1889   32.3500   37.0257 H   0  0  0  0  0  0  0  0  0  0  0  0
   14.8348   30.6440   35.8954 N   0  0  0  0  0  0  0  0  0  0  0  0
   15.1502   29.3108   35.7228 C   0  0  0  0  0  0  0  0  0  0  0  0
   16.3679   28.9117   35.3489 C   0  0  0  0  0  0  0  0  0  0  0  0
   17.4078   29.9246   35.1249 C   0  0  0  0  0  0  0  0  0  0  0  0
   18.5496   29.6023   34.8065 O   0  0  0  0  0  0  0  0  0  0  0  0
   17.0189   31.2205   35.2878 N   0  0  0  0  0  0  0  0  0  0  0  0
   15.7645   31.6468   35.6458 C   0  0  0  0  0  0  0  0  0  0  0  0
   15.5155   32.8477   35.7213 O   0  0  0  0  0  0  0  0  0  0  0  0
   17.7141   31.9314   35.1212 H   0  0  0  0  0  0  0  0  0  0  0  0
 11 12  1  0  0  0
 12 13  1  0  0  0
 12 10  1  0  0  0
 10  8  1  0  0  0
  8  9  2  0  0  0
  8  6  1  0  0  0
  6  7  1  0  0  0
  6  4  1  0  0  0
  4  2  1  0  0  0
  2  3  2  0  0  0
  2  1  1  0  0  0
  1 21  1  0  0  0
 21 22  1  0  0  0
 22 23  1  0  0  0
 23 24  1  0  0  0
 24 25  1  0  0  0
 25 26  1  0  0  0
 22 26  1  0  0  0
 25 31  1  0  0  0
 31 32  1  0  0  0
 32 33  2  0  0  0
 33 34  1  0  0  0
 34 35  2  0  0  0
 34 36  1  0  0  0
 36 37  1  0  0  0
 31 37  1  0  0  0
 37 38  2  0  0  0
 24 27  1  0  0  0
 24 28  1  0  0  0
 23 29  1  0  0  0
  2 14  1  0  0  0
 14 15  1  0  0  0
 15 16  2  0  0  0
 16 17  1  0  0  0
 17 18  2  0  0  0
 18 19  1  0  0  0
 19 20  2  0  0  0
 15 20  1  0  0  0
  4  5  1  0  0  0
 36 39  1  0  0  0
 29 30  1  0  0  0
M  END
> <minimizedAffinity>
-8.68922

$$$$
