mol_0


 47 50  0  0  0  0  0  0  0  0999 V2000
   11.1028   30.3360   39.7094 C   0  0  0  0  0  0  0  0  0  0  0  0
    9.9946   29.8893   39.2204 N   0  0  0  0  0  0  0  0  0  0  0  0
    9.2815   30.3445   37.9728 C   0  0  0  0  0  0  0  0  0  0  0  0
    7.8506   29.7940   38.1371 C   0  0  0  0  0  0  0  0  0  0  0  0
    8.0798   28.6255   39.0569 C   0  0  0  0  0  0  0  0  0  0  0  0
    7.2505   27.5295   39.3196 C   0  0  0  0  0  0  0  0  0  0  0  0
    7.7822   26.4579   40.0471 C   0  0  0  0  0  0  0  0  0  0  0  0
    9.1331   26.5022   40.3935 C   0  0  0  0  0  0  0  0  0  0  0  0
    9.9014   27.6471   40.3005 C   0  0  0  0  0  0  0  0  0  0  0  0
    9.3503   28.7144   39.6293 C   0  0  0  0  0  0  0  0  0  0  0  0
    9.8219   25.3602   40.6726 O   0  0  0  0  0  0  0  0  0  0  0  0
    9.5099   24.7112   40.0111 H   0  0  0  0  0  0  0  0  0  0  0  0
   13.5551   31.7266   40.7500 C   0  0  0  0  0  0  0  0  0  0  0  0
   14.6819   32.4986   41.4710 C   0  0  0  0  0  0  0  0  0  0  0  0
   15.0853   31.8933   42.7617 N   0  0  0  0  0  0  0  0  0  0  0  0
   14.3952   30.8463   43.3564 C   0  0  0  0  0  0  0  0  0  0  0  0
   13.3189   30.2654   42.8088 C   0  0  0  0  0  0  0  0  0  0  0  0
   12.7924   30.6616   41.5141 C   0  0  0  0  0  0  0  0  0  0  0  0
   11.6669   30.0749   41.0633 C   0  0  0  0  0  0  0  0  0  0  0  0
   15.3743   32.6231   43.4281 H   0  0  0  0  0  0  0  0  0  0  0  0
   14.8384   30.3132   44.6958 C   0  0  0  0  0  0  0  0  0  0  0  0
   14.1053   29.7971   45.5266 O   0  0  0  0  0  0  0  0  0  0  0  0
   16.1731   30.4479   44.8484 O   0  0  0  0  0  0  0  0  0  0  0  0
   16.5785   30.7338   44.0056 H   0  0  0  0  0  0  0  0  0  0  0  0
   14.3684   33.9899   41.7077 C   0  0  0  0  0  0  0  0  0  0  0  0
   14.5793   34.5311   42.7898 O   0  0  0  0  0  0  0  0  0  0  0  0
   13.9623   34.7001   40.6365 O   0  0  0  0  0  0  0  0  0  0  0  0
   13.8146   34.2346   39.7913 H   0  0  0  0  0  0  0  0  0  0  0  0
    9.3173   31.8548   37.7628 C   0  0  0  0  0  0  0  0  0  0  0  0
   10.1697   32.2854   36.9371 O   0  0  0  0  0  0  0  0  0  0  0  0
    8.4332   32.4789   38.4044 O   0  0  0  0  0  0  0  0  0  0  0  0
    7.1047   25.2822   40.1447 O   0  0  0  0  0  0  0  0  0  0  0  0
    5.6572   25.2506   39.9534 C   0  0  0  0  0  0  0  0  0  0  0  0
    5.2143   23.8511   39.4494 C   0  0  0  0  0  0  0  0  0  0  0  0
    4.8669   22.9071   40.6055 C   0  0  0  0  0  0  0  0  0  0  0  0
    3.8877   23.5658   41.5793 C   0  0  0  0  0  0  0  0  0  0  0  0
    4.3173   24.9799   42.0067 C   0  0  0  0  0  0  0  0  0  0  0  0
    4.7771   25.8125   40.9322 O   0  0  0  0  0  0  0  0  0  0  0  0
    2.5920   23.5566   40.9528 O   0  0  0  0  0  0  0  0  0  0  0  0
    4.2912   21.6872   40.1097 O   0  0  0  0  0  0  0  0  0  0  0  0
    6.1982   23.2723   38.5798 O   0  0  0  0  0  0  0  0  0  0  0  0
    2.5284   24.3125   40.3406 H   0  0  0  0  0  0  0  0  0  0  0  0
    3.3200   21.8017   40.1510 H   0  0  0  0  0  0  0  0  0  0  0  0
    7.0444   23.2374   39.0564 H   0  0  0  0  0  0  0  0  0  0  0  0
    3.1568   25.7046   42.7285 C   0  0  0  0  0  0  0  0  0  0  0  0
    2.4148   24.8367   43.5846 O   0  0  0  0  0  0  0  0  0  0  0  0
    2.4972   23.9280   43.2567 H   0  0  0  0  0  0  0  0  0  0  0  0
 13 14  1  0  0  0
 14 15  1  0  0  0
 15 16  1  0  0  0
 16 17  2  0  0  0
 17 18  1  0  0  0
 13 18  1  0  0  0
 18 19  2  0  0  0
 19  1  1  0  0  0
  1  2  2  0  0  0
  2  3  1  0  0  0
  3  4  1  0  0  0
  4  5  1  0  0  0
  5  6  2  0  0  0
  6  7  1  0  0  0
  7  8  2  0  0  0
  8  9  1  0  0  0
  9 10  2  0  0  0
  5 10  1  0  0  0
  2 10  1  0  0  0
  8 11  1  0  0  0
  7 32  1  0  0  0
 32 33  1  0  0  0
 33 34  1  0  0  0
 34 35  1  0  0  0
 35 36  1  0  0  0
 36 37  1  0  0  0
 37 38  1  0  0  0
 33 38  1  0  0  0
 37 45  1  0  0  0
 45 46  1  0  0  0
 36 39  1  0  0  0
 35 40  1  0  0  0
 34 41  1  0  0  0
  3 29  1  0  0  0
 29 30  2  0  0  0
 29 31  1  0  0  0
 16 21  1  0  0  0
 21 22  2  0  0  0
 21 23  1  0  0  0
 14 25  1  0  0  0
 25 26  2  0  0  0
 25 27  1  0  0  0
 15 20  1  0  0  0
 11 12  1  0  0  0
 46 47  1  0  0  0
 39 42  1  0  0  0
 40 43  1  0  0  0
 41 44  1  0  0  0
 23 24  1  0  0  0
 27 28  1  0  0  0
M  CHG 1   2   1
M  CHG 1  31  -1
M  END
> <minimizedAffinity>
-10.89770

$$$$
mol_1


 53 59  0  0  0  0  0  0  0  0999 V2000
   11.8741   28.0473   30.7440 C   0  0  0  0  0  0  0  0  0  0  0  0
   12.1084   29.0356   29.6883 N   0  0  0  0  0  0  0  0  0  0  0  0
   12.1542   28.3412   28.3873 C   0  0  0  0  0  0  0  0  0  0  0  0
   13.0925   28.9718   27.3622 C   0  0  0  0  0  0  0  0  0  0  0  0
   14.4750   28.9945   27.9739 C   0  0  0  0  0  0  0  0  0  0  0  0
   14.5648   29.5219   29.2909 C   0  0  0  0  0  0  0  0  0  0  0  0
   13.2521   29.9810   29.9221 C   0  0  0  0  0  0  0  0  0  0  0  0
   13.3688   30.4463   31.3870 C   0  0  0  0  0  0  0  0  0  0  0  0
   14.7146   30.9735   31.8262 C   0  0  0  0  0  0  0  0  0  0  0  0
   14.7788   31.7476   33.0163 C   0  0  0  0  0  0  0  0  0  0  0  0
   15.9925   31.8221   33.7119 C   0  0  0  0  0  0  0  0  0  0  0  0
   17.1691   31.4855   33.0669 C   0  0  0  0  0  0  0  0  0  0  0  0
   17.0983   30.8699   31.8110 C   0  0  0  0  0  0  0  0  0  0  0  0
   15.8862   30.4931   31.1992 C   0  0  0  0  0  0  0  0  0  0  0  0
   15.8162   29.6885   29.9272 C   0  0  0  0  0  0  0  0  0  0  0  0
   16.9443   29.1111   29.2617 C   0  0  0  0  0  0  0  0  0  0  0  0
   16.8556   28.5499   27.9556 C   0  0  0  0  0  0  0  0  0  0  0  0
   15.6170   28.5428   27.3100 C   0  0  0  0  0  0  0  0  0  0  0  0
   15.4965   28.0713   26.0324 O   0  0  0  0  0  0  0  0  0  0  0  0
   16.0306   32.1544   35.0415 O   0  0  0  0  0  0  0  0  0  0  0  0
   14.7497   27.4516   26.0150 H   0  0  0  0  0  0  0  0  0  0  0  0
   15.1206   32.1082   35.3804 H   0  0  0  0  0  0  0  0  0  0  0  0
   18.0207   28.0326   27.4492 O   0  0  0  0  0  0  0  0  0  0  0  0
   18.2086   26.6307   27.3615 C   0  0  0  0  0  0  0  0  0  0  0  0
   18.0962   28.9519   30.0112 O   0  0  0  0  0  0  0  0  0  0  0  0
   18.1856   27.7714   30.8071 C   0  0  0  0  0  0  0  0  0  0  0  0
   18.4477   31.6452   33.5361 O   0  0  0  0  0  0  0  0  0  0  0  0
   19.2577   30.4763   33.5842 C   0  0  0  0  0  0  0  0  0  0  0  0
   13.5928   32.3253   33.4449 O   0  0  0  0  0  0  0  0  0  0  0  0
   12.8172   31.7248   34.4198 C   0  0  0  0  0  0  0  0  0  0  0  0
   12.9543   30.4140   34.8770 C   0  0  0  0  0  0  0  0  0  0  0  0
   11.8768   29.7875   35.5130 C   0  0  0  0  0  0  0  0  0  0  0  0
   10.7031   30.4978   35.7943 C   0  0  0  0  0  0  0  0  0  0  0  0
   10.7300   31.8859   35.6264 C   0  0  0  0  0  0  0  0  0  0  0  0
   11.7581   32.4908   34.8979 C   0  0  0  0  0  0  0  0  0  0  0  0
    9.4519   29.7569   36.2300 C   0  0  0  0  0  0  0  0  0  0  0  0
    9.0136   29.7958   37.7483 C   0  0  0  0  0  0  0  0  0  0  0  0
   10.2234   29.8678   38.6708 C   0  0  0  0  0  0  0  0  0  0  0  0
   11.0260   28.7280   38.8646 C   0  0  0  0  0  0  0  0  0  0  0  0
   12.2148   28.7818   39.6068 C   0  0  0  0  0  0  0  0  0  0  0  0
   12.6524   30.0192   40.0955 C   0  0  0  0  0  0  0  0  0  0  0  0
   11.8159   31.1417   39.9369 C   0  0  0  0  0  0  0  0  0  0  0  0
   10.5886   31.0781   39.2721 C   0  0  0  0  0  0  0  0  0  0  0  0
    9.6693   32.2725   39.2168 C   0  0  0  0  0  0  0  0  0  0  0  0
    8.4284   32.1106   38.3206 C   0  0  0  0  0  0  0  0  0  0  0  0
    7.9589   30.7297   38.1951 N   0  0  0  0  0  0  0  0  0  0  0  0
    6.7328   30.6473   37.4141 C   0  0  0  0  0  0  0  0  0  0  0  0
   12.2349   32.3566   40.4256 O   0  0  0  0  0  0  0  0  0  0  0  0
   13.1206   32.1794   40.7993 H   0  0  0  0  0  0  0  0  0  0  0  0
   13.8216   30.3175   40.7544 O   0  0  0  0  0  0  0  0  0  0  0  0
   13.8997   30.0453   42.1464 C   0  0  0  0  0  0  0  0  0  0  0  0
   12.9796   27.6624   39.8039 O   0  0  0  0  0  0  0  0  0  0  0  0
   12.5873   26.8304   40.8936 C   0  0  0  0  0  0  0  0  0  0  0  0
  1  2  1  0  0  0
  2  3  1  0  0  0
  3  4  1  0  0  0
  4  5  1  0  0  0
  5  6  2  0  0  0
  6  7  1  0  0  0
  2  7  1  0  0  0
  7  8  1  0  0  0
  8  9  1  0  0  0
  9 10  2  0  0  0
 10 11  1  0  0  0
 11 12  2  0  0  0
 12 13  1  0  0  0
 13 14  2  0  0  0
  9 14  1  0  0  0
 14 15  1  0  0  0
  6 15  1  0  0  0
 15 16  2  0  0  0
 16 17  1  0  0  0
 17 18  2  0  0  0
  5 18  1  0  0  0
 18 19  1  0  0  0
 17 23  1  0  0  0
 23 24  1  0  0  0
 16 25  1  0  0  0
 25 26  1  0  0  0
 12 27  1  0  0  0
 27 28  1  0  0  0
 11 20  1  0  0  0
 10 29  1  0  0  0
 29 30  1  0  0  0
 30 31  2  0  0  0
 31 32  1  0  0  0
 32 33  2  0  0  0
 33 34  1  0  0  0
 34 35  2  0  0  0
 30 35  1  0  0  0
 33 36  1  0  0  0
 36 37  1  0  0  0
 37 38  1  0  0  0
 38 39  2  0  0  0
 39 40  1  0  0  0
 40 41  2  0  0  0
 41 42  1  0  0  0
 42 43  2  0  0  0
 38 43  1  0  0  0
 43 44  1  0  0  0
 44 45  1  0  0  0
 45 46  1  0  0  0
 37 46  1  0  0  0
 46 47  1  0  0  0
 42 48  1  0  0  0
 41 50  1  0  0  0
 50 51  1  0  0  0
 40 52  1  0  0  0
 52 53  1  0  0  0
 19 21  1  0  0  0
 20 22  1  0  0  0
 48 49  1  0  0  0
M  END
> <minimizedAffinity>
-11.06850

$$$$
mol_2


 56 61  0  0  0  0  0  0  0  0999 V2000
   12.0938   29.7459   44.0903 C   0  0  0  0  0  0  0  0  0  0  0  0
   10.8535   29.1356   43.9368 C   0  0  0  0  0  0  0  0  0  0  0  0
   10.7565   27.7413   43.9298 C   0  0  0  0  0  0  0  0  0  0  0  0
   11.9374   26.9685   43.9188 C   0  0  0  0  0  0  0  0  0  0  0  0
   13.1909   27.5646   44.0791 C   0  0  0  0  0  0  0  0  0  0  0  0
   13.2488   28.9515   44.1970 C   0  0  0  0  0  0  0  0  0  0  0  0
   11.8761   25.5977   43.8359 O   0  0  0  0  0  0  0  0  0  0  0  0
   11.0272   25.3606   43.4247 H   0  0  0  0  0  0  0  0  0  0  0  0
    9.4697   27.1634   44.3209 C   0  0  0  0  0  0  0  0  0  0  0  0
    9.2127   26.4260   45.4791 C   0  0  0  0  0  0  0  0  0  0  0  0
    7.9408   25.8698   45.6970 C   0  0  0  0  0  0  0  0  0  0  0  0
    6.9122   26.1278   44.7788 C   0  0  0  0  0  0  0  0  0  0  0  0
    7.1465   26.8897   43.6248 C   0  0  0  0  0  0  0  0  0  0  0  0
    8.4398   27.3238   43.3791 C   0  0  0  0  0  0  0  0  0  0  0  0
   10.1929   26.2078   46.4135 O   0  0  0  0  0  0  0  0  0  0  0  0
   11.0025   26.6702   46.1437 H   0  0  0  0  0  0  0  0  0  0  0  0
    7.7959   25.1063   46.8274 O   0  0  0  0  0  0  0  0  0  0  0  0
    7.5433   23.7196   46.6460 C   0  0  0  0  0  0  0  0  0  0  0  0
    6.0447   27.1934   42.6507 C   0  0  0  0  0  0  0  0  0  0  0  0
    5.6226   28.6603   42.4124 C   0  0  0  0  0  0  0  0  0  0  0  0
    5.7786   29.4459   41.0955 C   0  0  0  0  0  0  0  0  0  0  0  0
    4.3447   29.8563   40.7505 C   0  0  0  0  0  0  0  0  0  0  0  0
    3.5335   29.6473   41.8973 O   0  0  0  0  0  0  0  0  0  0  0  0
    4.1797   28.8736   42.8011 C   0  0  0  0  0  0  0  0  0  0  0  0
    3.6550   28.4521   43.8205 O   0  0  0  0  0  0  0  0  0  0  0  0
    6.4411   28.9109   39.8148 C   0  0  0  0  0  0  0  0  0  0  0  0
    7.8311   28.3346   39.8168 C   0  0  0  0  0  0  0  0  0  0  0  0
    7.9751   26.9494   39.6270 C   0  0  0  0  0  0  0  0  0  0  0  0
    9.2135   26.2976   39.7575 C   0  0  0  0  0  0  0  0  0  0  0  0
   10.3435   27.0459   40.1194 C   0  0  0  0  0  0  0  0  0  0  0  0
   10.2034   28.4312   40.2796 C   0  0  0  0  0  0  0  0  0  0  0  0
    8.9746   29.0682   40.0908 C   0  0  0  0  0  0  0  0  0  0  0  0
   11.5411   26.4024   40.2763 O   0  0  0  0  0  0  0  0  0  0  0  0
   12.7148   27.1968   40.3872 C   0  0  0  0  0  0  0  0  0  0  0  0
    9.1187   24.9554   39.4943 O   0  0  0  0  0  0  0  0  0  0  0  0
    8.4181   24.1268   40.4084 C   0  0  0  0  0  0  0  0  0  0  0  0
   14.2694   26.7247   44.1759 O   0  0  0  0  0  0  0  0  0  0  0  0
   15.1688   26.7004   43.0745 C   0  0  0  0  0  0  0  0  0  0  0  0
   12.1754   31.2252   44.3316 C   0  0  0  0  0  0  0  0  0  0  0  0
   13.3027   32.2008   42.2513 C   0  0  0  0  0  0  0  0  0  0  0  0
   13.9816   33.5367   42.0320 C   0  0  0  0  0  0  0  0  0  0  0  0
   14.0235   34.1982   43.2906 O   0  0  0  0  0  0  0  0  0  0  0  0
   13.6872   33.3505   44.3039 C   0  0  0  0  0  0  0  0  0  0  0  0
   13.6945   33.7025   45.4672 O   0  0  0  0  0  0  0  0  0  0  0  0
   13.3839   31.9697   43.7666 C   0  0  0  0  0  0  0  0  0  0  0  0
   11.9373   32.0838   41.5255 C   0  0  0  0  0  0  0  0  0  0  0  0
   11.6605   31.0837   37.2935 C   0  0  0  0  0  0  0  0  0  0  0  0
   12.7636   30.6960   38.0624 C   0  0  0  0  0  0  0  0  0  0  0  0
   12.8085   31.0448   39.4243 C   0  0  0  0  0  0  0  0  0  0  0  0
   11.7955   31.8006   40.0428 C   0  0  0  0  0  0  0  0  0  0  0  0
   10.7219   32.1915   39.2461 C   0  0  0  0  0  0  0  0  0  0  0  0
   10.6372   31.8121   37.9041 C   0  0  0  0  0  0  0  0  0  0  0  0
   10.8376   31.5836   35.1478 C   0  0  0  0  0  0  0  0  0  0  0  0
   11.5552   30.6820   35.9881 O   0  0  0  0  0  0  0  0  0  0  0  0
   13.8572   29.9740   37.6603 O   0  0  0  0  0  0  0  0  0  0  0  0
   14.8931   30.6786   36.9893 C   0  0  0  0  0  0  0  0  0  0  0  0
 53 54  1  0  0  0
 54 47  1  0  0  0
 47 48  2  0  0  0
 48 49  1  0  0  0
 49 50  2  0  0  0
 50 51  1  0  0  0
 51 52  2  0  0  0
 47 52  1  0  0  0
 50 46  1  0  0  0
 46 40  1  0  0  0
 40 41  1  0  0  0
 41 42  1  0  0  0
 42 43  1  0  0  0
 43 44  2  0  0  0
 43 45  1  0  0  0
 40 45  1  0  0  0
 45 39  1  0  0  0
 39  1  1  0  0  0
  1  2  2  0  0  0
  2  3  1  0  0  0
  3  4  2  0  0  0
  4  5  1  0  0  0
  5  6  2  0  0  0
  1  6  1  0  0  0
  5 37  1  0  0  0
 37 38  1  0  0  0
  4  7  1  0  0  0
  3  9  1  0  0  0
  9 10  2  0  0  0
 10 11  1  0  0  0
 11 12  2  0  0  0
 12 13  1  0  0  0
 13 14  2  0  0  0
  9 14  1  0  0  0
 13 19  1  0  0  0
 19 20  1  0  0  0
 20 21  1  0  0  0
 21 22  1  0  0  0
 22 23  1  0  0  0
 23 24  1  0  0  0
 20 24  1  0  0  0
 24 25  2  0  0  0
 21 26  1  0  0  0
 26 27  1  0  0  0
 27 28  2  0  0  0
 28 29  1  0  0  0
 29 30  2  0  0  0
 30 31  1  0  0  0
 31 32  2  0  0  0
 27 32  1  0  0  0
 30 33  1  0  0  0
 33 34  1  0  0  0
 29 35  1  0  0  0
 35 36  1  0  0  0
 11 17  1  0  0  0
 17 18  1  0  0  0
 10 15  1  0  0  0
 48 55  1  0  0  0
 55 56  1  0  0  0
  7  8  1  0  0  0
 15 16  1  0  0  0
M  END
> <minimizedAffinity>
-9.06239

$$$$
mol_3


 49 55  0  0  0  0  0  0  0  0999 V2000
   13.1626   28.2954   41.9312 C   0  0  0  0  0  0  0  0  0  0  0  0
   12.8448   29.6322   42.4331 N   0  0  0  0  0  0  0  0  0  0  0  0
   14.0659   30.4663   42.3638 C   0  0  0  0  0  0  0  0  0  0  0  0
   13.8486   31.9381   42.0197 C   0  0  0  0  0  0  0  0  0  0  0  0
   13.0505   31.9956   40.7464 C   0  0  0  0  0  0  0  0  0  0  0  0
   13.4176   32.8074   39.6796 C   0  0  0  0  0  0  0  0  0  0  0  0
   12.6884   32.7617   38.4908 C   0  0  0  0  0  0  0  0  0  0  0  0
   11.4814   32.0193   38.4365 C   0  0  0  0  0  0  0  0  0  0  0  0
   11.0135   31.2968   39.5698 C   0  0  0  0  0  0  0  0  0  0  0  0
   11.9030   31.1861   40.6652 C   0  0  0  0  0  0  0  0  0  0  0  0
   11.6173   30.2583   41.8427 C   0  0  0  0  0  0  0  0  0  0  0  0
   10.5086   29.2415   41.4659 C   0  0  0  0  0  0  0  0  0  0  0  0
    9.3064   29.9087   40.8315 C   0  0  0  0  0  0  0  0  0  0  0  0
    7.9577   29.6431   41.1679 C   0  0  0  0  0  0  0  0  0  0  0  0
    6.9263   30.0650   40.3090 C   0  0  0  0  0  0  0  0  0  0  0  0
    7.2075   30.8040   39.1691 C   0  0  0  0  0  0  0  0  0  0  0  0
    8.5303   31.2010   38.9453 C   0  0  0  0  0  0  0  0  0  0  0  0
    9.6104   30.7714   39.7417 C   0  0  0  0  0  0  0  0  0  0  0  0
    5.6310   29.7402   40.6348 O   0  0  0  0  0  0  0  0  0  0  0  0
    5.6745   29.2444   41.4735 H   0  0  0  0  0  0  0  0  0  0  0  0
    6.3229   31.2552   38.2267 O   0  0  0  0  0  0  0  0  0  0  0  0
    6.6919   31.0756   36.8640 C   0  0  0  0  0  0  0  0  0  0  0  0
   10.7808   31.8239   37.2657 O   0  0  0  0  0  0  0  0  0  0  0  0
   11.1701   30.7247   36.4502 C   0  0  0  0  0  0  0  0  0  0  0  0
   13.0878   33.4383   37.3663 O   0  0  0  0  0  0  0  0  0  0  0  0
   14.1474   32.8707   36.6061 C   0  0  0  0  0  0  0  0  0  0  0  0
    7.4635   28.9269   42.2424 O   0  0  0  0  0  0  0  0  0  0  0  0
    7.3971   27.5622   42.2360 C   0  0  0  0  0  0  0  0  0  0  0  0
    7.6076   26.7455   41.1302 C   0  0  0  0  0  0  0  0  0  0  0  0
    7.0883   25.4502   41.1560 C   0  0  0  0  0  0  0  0  0  0  0  0
    6.4540   24.9520   42.3052 C   0  0  0  0  0  0  0  0  0  0  0  0
    6.6036   25.6686   43.4889 C   0  0  0  0  0  0  0  0  0  0  0  0
    7.0262   26.9915   43.4464 C   0  0  0  0  0  0  0  0  0  0  0  0
    5.5763   23.7284   42.1662 C   0  0  0  0  0  0  0  0  0  0  0  0
    4.3821   23.6481   41.1384 C   0  0  0  0  0  0  0  0  0  0  0  0
    3.8338   25.0333   40.8150 C   0  0  0  0  0  0  0  0  0  0  0  0
    3.3914   25.8561   41.8728 C   0  0  0  0  0  0  0  0  0  0  0  0
    2.9713   27.1616   41.6429 C   0  0  0  0  0  0  0  0  0  0  0  0
    2.9702   27.6369   40.3313 C   0  0  0  0  0  0  0  0  0  0  0  0
    3.3514   26.8309   39.2641 C   0  0  0  0  0  0  0  0  0  0  0  0
    3.7800   25.5171   39.4988 C   0  0  0  0  0  0  0  0  0  0  0  0
    4.0966   24.6158   38.3364 C   0  0  0  0  0  0  0  0  0  0  0  0
    4.8643   23.3426   38.7083 C   0  0  0  0  0  0  0  0  0  0  0  0
    4.4454   22.7338   39.9708 N   0  0  0  0  0  0  0  0  0  0  0  0
    5.1973   21.5112   40.2229 C   0  0  0  0  0  0  0  0  0  0  0  0
    2.5767   28.9207   40.0675 O   0  0  0  0  0  0  0  0  0  0  0  0
    2.3588   29.2976   40.9421 H   0  0  0  0  0  0  0  0  0  0  0  0
    2.5513   28.0488   42.6003 O   0  0  0  0  0  0  0  0  0  0  0  0
    3.5610   28.5804   43.4538 C   0  0  0  0  0  0  0  0  0  0  0  0
  1  2  1  0  0  0
  2  3  1  0  0  0
  3  4  1  0  0  0
  4  5  1  0  0  0
  5  6  2  0  0  0
  6  7  1  0  0  0
  7  8  2  0  0  0
  8  9  1  0  0  0
  9 10  2  0  0  0
  5 10  1  0  0  0
 10 11  1  0  0  0
  2 11  1  0  0  0
 11 12  1  0  0  0
 12 13  1  0  0  0
 13 14  2  0  0  0
 14 15  1  0  0  0
 15 16  2  0  0  0
 16 17  1  0  0  0
 17 18  2  0  0  0
 13 18  1  0  0  0
  9 18  1  0  0  0
 16 21  1  0  0  0
 21 22  1  0  0  0
 15 19  1  0  0  0
 14 27  1  0  0  0
 27 28  1  0  0  0
 28 29  2  0  0  0
 29 30  1  0  0  0
 30 31  2  0  0  0
 31 32  1  0  0  0
 32 33  2  0  0  0
 28 33  1  0  0  0
 31 34  1  0  0  0
 34 35  1  0  0  0
 35 36  1  0  0  0
 36 37  2  0  0  0
 37 38  1  0  0  0
 38 39  2  0  0  0
 39 40  1  0  0  0
 40 41  2  0  0  0
 36 41  1  0  0  0
 41 42  1  0  0  0
 42 43  1  0  0  0
 43 44  1  0  0  0
 35 44  1  0  0  0
 44 45  1  0  0  0
 39 46  1  0  0  0
 38 48  1  0  0  0
 48 49  1  0  0  0
  8 23  1  0  0  0
 23 24  1  0  0  0
  7 25  1  0  0  0
 25 26  1  0  0  0
 19 20  1  0  0  0
 46 47  1  0  0  0
M  END
> <minimizedAffinity>
-10.00470

$$$$
mol_4


 39 41  0  0  0  0  0  0  0  0999 V2000
   10.5908   31.1054   38.9209 O   0  0  0  0  0  0  0  0  0  0  0  0
    9.3207   31.5053   39.9838 P   0  0  0  0  0  0  0  0  0  0  0  0
    8.7966   32.8912   39.5904 O   0  0  0  0  0  0  0  0  0  0  0  0
   10.5051   32.3133   41.0388 N   0  0  0  0  0  0  0  0  0  0  0  0
   10.2621   33.2338   41.3881 H   0  0  0  0  0  0  0  0  0  0  0  0
   11.3458   31.4455   41.8612 C   0  0  0  0  0  0  0  0  0  0  0  0
   10.9821   31.5114   43.3368 C   0  0  0  0  0  0  0  0  0  0  0  0
   12.8273   31.7792   41.6795 C   0  0  0  0  0  0  0  0  0  0  0  0
   13.5166   31.4446   40.7252 O   0  0  0  0  0  0  0  0  0  0  0  0
   13.2516   32.5327   42.7369 O   0  0  0  0  0  0  0  0  0  0  0  0
   13.3735   34.6003   43.9128 C   0  0  0  0  0  0  0  0  0  0  0  0
   13.3475   33.9549   42.5302 C   0  0  0  0  0  0  0  0  0  0  0  0
   14.6211   34.2961   41.7649 C   0  0  0  0  0  0  0  0  0  0  0  0
    8.1697   30.7199   38.9585 O   0  0  0  0  0  0  0  0  0  0  0  0
    6.9801   30.3164   39.5107 C   0  0  0  0  0  0  0  0  0  0  0  0
    5.7642   30.4226   38.8372 C   0  0  0  0  0  0  0  0  0  0  0  0
    4.5802   30.0915   39.4990 C   0  0  0  0  0  0  0  0  0  0  0  0
    4.6176   29.6414   40.8192 C   0  0  0  0  0  0  0  0  0  0  0  0
    5.8406   29.5035   41.4756 C   0  0  0  0  0  0  0  0  0  0  0  0
    7.0248   29.8345   40.8174 C   0  0  0  0  0  0  0  0  0  0  0  0
   10.4325   29.9874   38.0320 C   0  0  0  0  0  0  0  0  0  0  0  0
   11.4346   29.8420   36.8790 C   0  0  0  0  0  0  0  0  0  0  0  0
   11.0406   30.7803   35.7223 C   0  0  0  0  0  0  0  0  0  0  0  0
   12.3587   30.9962   35.0061 C   0  0  0  0  0  0  0  0  0  0  0  0
   13.3304   31.0792   36.1945 C   0  0  0  0  0  0  0  0  0  0  0  0
   12.7715   30.2709   37.2712 O   0  0  0  0  0  0  0  0  0  0  0  0
   12.3867   32.1978   34.0757 C   0  0  0  0  0  0  0  0  0  0  0  0
   12.6105   29.8783   34.2605 F   0  0  0  0  0  0  0  0  0  0  0  0
   10.4798   32.0243   36.1651 O   0  0  0  0  0  0  0  0  0  0  0  0
   11.0315   32.4154   36.8668 H   0  0  0  0  0  0  0  0  0  0  0  0
   14.7000   30.6632   35.8908 N   0  0  0  0  0  0  0  0  0  0  0  0
   15.0071   29.3253   35.7415 C   0  0  0  0  0  0  0  0  0  0  0  0
   16.2347   28.9097   35.4221 C   0  0  0  0  0  0  0  0  0  0  0  0
   17.2946   29.9092   35.2344 C   0  0  0  0  0  0  0  0  0  0  0  0
   18.4450   29.5717   34.9666 O   0  0  0  0  0  0  0  0  0  0  0  0
   16.9140   31.2106   35.3711 N   0  0  0  0  0  0  0  0  0  0  0  0
   15.6507   31.6536   35.6729 C   0  0  0  0  0  0  0  0  0  0  0  0
   15.4125   32.8577   35.7288 O   0  0  0  0  0  0  0  0  0  0  0  0
   17.6237   31.9124   35.2285 H   0  0  0  0  0  0  0  0  0  0  0  0
 11 12  1  0  0  0
 12 13  1  0  0  0
 12 10  1  0  0  0
 10  8  1  0  0  0
  8  9  2  0  0  0
  8  6  1  0  0  0
  6  7  1  0  0  0
  6  4  1  0  0  0
  4  2  1  0  0  0
  2  3  2  0  0  0
  2  1  1  0  0  0
  1 21  1  0  0  0
 21 22  1  0  0  0
 22 23  1  0  0  0
 23 24  1  0  0  0
 24 25  1  0  0  0
 25 26  1  0  0  0
 22 26  1  0  0  0
 25 31  1  0  0  0
 31 32  1  0  0  0
 32 33  2  0  0  0
 33 34  1  0  0  0
 34 35  2  0  0  0
 34 36  1  0  0  0
 36 37  1  0  0  0
 31 37  1  0  0  0
 37 38  2  0  0  0
 24 27  1  0  0  0
 24 28  1  0  0  0
 23 29  1  0  0  0
  2 14  1  0  0  0
 14 15  1  0  0  0
 15 16  2  0  0  0
 16 17  1  0  0  0
 17 18  2  0  0  0
 18 19  1  0  0  0
 19 20  2  0  0  0
 15 20  1  0  0  0
  4  5  1  0  0  0
 36 39  1  0  0  0
 29 30  1  0  0  0
M  END
> <minimizedAffinity>
-8.76418

$$$$
