mol_0


 47 50  0  0  0  0  0  0  0  0999 V2000
   11.0811   30.4020   39.7684 C   0  0  0  0  0  0  0  0  0  0  0  0
    9.9761   29.9554   39.2721 N   0  0  0  0  0  0  0  0  0  0  0  0
    9.2639   30.4205   38.0276 C   0  0  0  0  0  0  0  0  0  0  0  0
    7.8351   29.8616   38.1826 C   0  0  0  0  0  0  0  0  0  0  0  0
    8.0676   28.6846   39.0906 C   0  0  0  0  0  0  0  0  0  0  0  0
    7.2428   27.5820   39.3397 C   0  0  0  0  0  0  0  0  0  0  0  0
    7.7777   26.5053   40.0572 C   0  0  0  0  0  0  0  0  0  0  0  0
    9.1276   26.5522   40.4074 C   0  0  0  0  0  0  0  0  0  0  0  0
    9.8908   27.7016   40.3283 C   0  0  0  0  0  0  0  0  0  0  0  0
    9.3363   28.7733   39.6671 C   0  0  0  0  0  0  0  0  0  0  0  0
    9.8211   25.4106   40.6761 O   0  0  0  0  0  0  0  0  0  0  0  0
    9.5137   24.7671   40.0071 H   0  0  0  0  0  0  0  0  0  0  0  0
   13.5333   31.7818   40.8237 C   0  0  0  0  0  0  0  0  0  0  0  0
   14.6598   32.5468   41.5525 C   0  0  0  0  0  0  0  0  0  0  0  0
   15.0610   31.9306   42.8387 N   0  0  0  0  0  0  0  0  0  0  0  0
   14.3691   30.8794   43.4238 C   0  0  0  0  0  0  0  0  0  0  0  0
   13.2930   30.3040   42.8701 C   0  0  0  0  0  0  0  0  0  0  0  0
   12.7686   30.7113   41.5780 C   0  0  0  0  0  0  0  0  0  0  0  0
   11.6431   30.1294   41.1209 C   0  0  0  0  0  0  0  0  0  0  0  0
   15.3497   32.6546   43.5114 H   0  0  0  0  0  0  0  0  0  0  0  0
   14.8101   30.3349   44.7594 C   0  0  0  0  0  0  0  0  0  0  0  0
   14.1057   29.6962   45.5275 O   0  0  0  0  0  0  0  0  0  0  0  0
   16.1109   30.6159   44.9867 O   0  0  0  0  0  0  0  0  0  0  0  0
   16.5180   30.9888   44.1795 H   0  0  0  0  0  0  0  0  0  0  0  0
   14.3474   34.0364   41.8009 C   0  0  0  0  0  0  0  0  0  0  0  0
   14.3166   34.5104   42.9335 O   0  0  0  0  0  0  0  0  0  0  0  0
   14.2259   34.8191   40.7103 O   0  0  0  0  0  0  0  0  0  0  0  0
   14.2652   34.4054   39.8270 H   0  0  0  0  0  0  0  0  0  0  0  0
    9.2932   31.9330   37.8336 C   0  0  0  0  0  0  0  0  0  0  0  0
    8.5058   32.6056   38.5556 O   0  0  0  0  0  0  0  0  0  0  0  0
   10.1599   32.3237   37.0094 O   0  0  0  0  0  0  0  0  0  0  0  0
    7.1055   25.3254   40.1408 O   0  0  0  0  0  0  0  0  0  0  0  0
    5.6608   25.2869   39.9311 C   0  0  0  0  0  0  0  0  0  0  0  0
    5.2295   23.8818   39.4327 C   0  0  0  0  0  0  0  0  0  0  0  0
    4.8706   22.9459   40.5919 C   0  0  0  0  0  0  0  0  0  0  0  0
    3.8764   23.6087   41.5476 C   0  0  0  0  0  0  0  0  0  0  0  0
    4.2954   25.0279   41.9690 C   0  0  0  0  0  0  0  0  0  0  0  0
    4.7661   25.8535   40.8938 O   0  0  0  0  0  0  0  0  0  0  0  0
    2.5890   23.5896   40.9044 O   0  0  0  0  0  0  0  0  0  0  0  0
    4.3058   21.7199   40.0986 O   0  0  0  0  0  0  0  0  0  0  0  0
    6.2267   23.2997   38.5807 O   0  0  0  0  0  0  0  0  0  0  0  0
    2.5306   24.3404   40.2854 H   0  0  0  0  0  0  0  0  0  0  0  0
    3.3337   21.8311   40.1263 H   0  0  0  0  0  0  0  0  0  0  0  0
    7.0667   23.2718   39.0684 H   0  0  0  0  0  0  0  0  0  0  0  0
    3.1230   25.7540   42.6699 C   0  0  0  0  0  0  0  0  0  0  0  0
    2.4289   24.9143   43.5917 O   0  0  0  0  0  0  0  0  0  0  0  0
    2.5381   23.9908   43.3174 H   0  0  0  0  0  0  0  0  0  0  0  0
 13 14  1  0  0  0
 14 15  1  0  0  0
 15 16  1  0  0  0
 16 17  2  0  0  0
 17 18  1  0  0  0
 13 18  1  0  0  0
 18 19  2  0  0  0
 19  1  1  0  0  0
  1  2  2  0  0  0
  2  3  1  0  0  0
  3  4  1  0  0  0
  4  5  1  0  0  0
  5  6  2  0  0  0
  6  7  1  0  0  0
  7  8  2  0  0  0
  8  9  1  0  0  0
  9 10  2  0  0  0
  5 10  1  0  0  0
  2 10  1  0  0  0
  8 11  1  0  0  0
  7 32  1  0  0  0
 32 33  1  0  0  0
 33 34  1  0  0  0
 34 35  1  0  0  0
 35 36  1  0  0  0
 36 37  1  0  0  0
 37 38  1  0  0  0
 33 38  1  0  0  0
 37 45  1  0  0  0
 45 46  1  0  0  0
 36 39  1  0  0  0
 35 40  1  0  0  0
 34 41  1  0  0  0
  3 29  1  0  0  0
 29 30  2  0  0  0
 29 31  1  0  0  0
 16 21  1  0  0  0
 21 22  2  0  0  0
 21 23  1  0  0  0
 14 25  1  0  0  0
 25 26  2  0  0  0
 25 27  1  0  0  0
 15 20  1  0  0  0
 11 12  1  0  0  0
 46 47  1  0  0  0
 39 42  1  0  0  0
 40 43  1  0  0  0
 41 44  1  0  0  0
 23 24  1  0  0  0
 27 28  1  0  0  0
M  CHG 1   2   1
M  CHG 1  31  -1
M  END
> <minimizedAffinity>
-10.84412

$$$$
mol_1


 53 59  0  0  0  0  0  0  0  0999 V2000
   11.8901   28.0405   30.7243 C   0  0  0  0  0  0  0  0  0  0  0  0
   12.1252   29.0333   29.6729 N   0  0  0  0  0  0  0  0  0  0  0  0
   12.1650   28.3453   28.3684 C   0  0  0  0  0  0  0  0  0  0  0  0
   13.1028   28.9777   27.3439 C   0  0  0  0  0  0  0  0  0  0  0  0
   14.4871   28.9922   27.9520 C   0  0  0  0  0  0  0  0  0  0  0  0
   14.5823   29.5125   29.2714 C   0  0  0  0  0  0  0  0  0  0  0  0
   13.2730   29.9733   29.9085 C   0  0  0  0  0  0  0  0  0  0  0  0
   13.3954   30.4307   31.3754 C   0  0  0  0  0  0  0  0  0  0  0  0
   14.7443   30.9507   31.8136 C   0  0  0  0  0  0  0  0  0  0  0  0
   14.8145   31.7184   33.0075 C   0  0  0  0  0  0  0  0  0  0  0  0
   16.0304   31.7850   33.7002 C   0  0  0  0  0  0  0  0  0  0  0  0
   17.2040   31.4473   33.0503 C   0  0  0  0  0  0  0  0  0  0  0  0
   17.1275   30.8384   31.7914 C   0  0  0  0  0  0  0  0  0  0  0  0
   15.9124   30.4692   31.1810 C   0  0  0  0  0  0  0  0  0  0  0  0
   15.8360   29.6713   29.9052 C   0  0  0  0  0  0  0  0  0  0  0  0
   16.9602   29.0931   29.2337 C   0  0  0  0  0  0  0  0  0  0  0  0
   16.8659   28.5390   27.9250 C   0  0  0  0  0  0  0  0  0  0  0  0
   15.6256   28.5397   27.2828 C   0  0  0  0  0  0  0  0  0  0  0  0
   15.4999   28.0751   26.0031 O   0  0  0  0  0  0  0  0  0  0  0  0
   16.0732   32.1104   35.0313 O   0  0  0  0  0  0  0  0  0  0  0  0
   14.7507   27.4583   25.9846 H   0  0  0  0  0  0  0  0  0  0  0  0
   15.1640   32.0658   35.3724 H   0  0  0  0  0  0  0  0  0  0  0  0
   18.0277   28.0199   27.4129 O   0  0  0  0  0  0  0  0  0  0  0  0
   18.2102   26.6178   27.3173 C   0  0  0  0  0  0  0  0  0  0  0  0
   18.1135   28.9259   29.9793 O   0  0  0  0  0  0  0  0  0  0  0  0
   18.1993   27.7426   30.7713 C   0  0  0  0  0  0  0  0  0  0  0  0
   18.4844   31.5999   33.5168 O   0  0  0  0  0  0  0  0  0  0  0  0
   19.2625   30.4148   33.6370 C   0  0  0  0  0  0  0  0  0  0  0  0
   13.6319   32.2983   33.4422 O   0  0  0  0  0  0  0  0  0  0  0  0
   12.8528   31.6920   34.4107 C   0  0  0  0  0  0  0  0  0  0  0  0
   12.9837   30.3763   34.8554 C   0  0  0  0  0  0  0  0  0  0  0  0
   11.9029   29.7486   35.4846 C   0  0  0  0  0  0  0  0  0  0  0  0
   10.7322   30.4613   35.7719 C   0  0  0  0  0  0  0  0  0  0  0  0
   10.7654   31.8509   35.6174 C   0  0  0  0  0  0  0  0  0  0  0  0
   11.7968   32.4581   34.8954 C   0  0  0  0  0  0  0  0  0  0  0  0
    9.4774   29.7219   36.1996 C   0  0  0  0  0  0  0  0  0  0  0  0
    9.0272   29.7648   37.7143 C   0  0  0  0  0  0  0  0  0  0  0  0
   10.2297   29.8384   38.6461 C   0  0  0  0  0  0  0  0  0  0  0  0
   11.0303   28.6987   38.8489 C   0  0  0  0  0  0  0  0  0  0  0  0
   12.2133   28.7537   39.6003 C   0  0  0  0  0  0  0  0  0  0  0  0
   12.6476   29.9921   40.0894 C   0  0  0  0  0  0  0  0  0  0  0  0
   11.8129   31.1146   39.9216 C   0  0  0  0  0  0  0  0  0  0  0  0
   10.5907   31.0500   39.2473 C   0  0  0  0  0  0  0  0  0  0  0  0
    9.6725   32.2447   39.1820 C   0  0  0  0  0  0  0  0  0  0  0  0
    8.4386   32.0811   38.2765 C   0  0  0  0  0  0  0  0  0  0  0  0
    7.9695   30.7002   38.1506 N   0  0  0  0  0  0  0  0  0  0  0  0
    6.7495   30.6165   37.3602 C   0  0  0  0  0  0  0  0  0  0  0  0
   12.2285   32.3306   40.4106 O   0  0  0  0  0  0  0  0  0  0  0  0
   13.1113   32.1538   40.7917 H   0  0  0  0  0  0  0  0  0  0  0  0
   13.8118   30.2916   40.7568 O   0  0  0  0  0  0  0  0  0  0  0  0
   13.8718   30.0413   42.1537 C   0  0  0  0  0  0  0  0  0  0  0  0
   12.9760   27.6345   39.8061 O   0  0  0  0  0  0  0  0  0  0  0  0
   12.5873   26.8163   40.9075 C   0  0  0  0  0  0  0  0  0  0  0  0
  1  2  1  0  0  0
  2  3  1  0  0  0
  3  4  1  0  0  0
  4  5  1  0  0  0
  5  6  2  0  0  0
  6  7  1  0  0  0
  2  7  1  0  0  0
  7  8  1  0  0  0
  8  9  1  0  0  0
  9 10  2  0  0  0
 10 11  1  0  0  0
 11 12  2  0  0  0
 12 13  1  0  0  0
 13 14  2  0  0  0
  9 14  1  0  0  0
 14 15  1  0  0  0
  6 15  1  0  0  0
 15 16  2  0  0  0
 16 17  1  0  0  0
 17 18  2  0  0  0
  5 18  1  0  0  0
 18 19  1  0  0  0
 17 23  1  0  0  0
 23 24  1  0  0  0
 16 25  1  0  0  0
 25 26  1  0  0  0
 12 27  1  0  0  0
 27 28  1  0  0  0
 11 20  1  0  0  0
 10 29  1  0  0  0
 29 30  1  0  0  0
 30 31  2  0  0  0
 31 32  1  0  0  0
 32 33  2  0  0  0
 33 34  1  0  0  0
 34 35  2  0  0  0
 30 35  1  0  0  0
 33 36  1  0  0  0
 36 37  1  0  0  0
 37 38  1  0  0  0
 38 39  2  0  0  0
 39 40  1  0  0  0
 40 41  2  0  0  0
 41 42  1  0  0  0
 42 43  2  0  0  0
 38 43  1  0  0  0
 43 44  1  0  0  0
 44 45  1  0  0  0
 45 46  1  0  0  0
 37 46  1  0  0  0
 46 47  1  0  0  0
 42 48  1  0  0  0
 41 50  1  0  0  0
 50 51  1  0  0  0
 40 52  1  0  0  0
 52 53  1  0  0  0
 19 21  1  0  0  0
 20 22  1  0  0  0
 48 49  1  0  0  0
M  END
> <minimizedAffinity>
-11.05853

$$$$
mol_2


 56 61  0  0  0  0  0  0  0  0999 V2000
    5.9609   28.3116   40.6920 C   0  0  0  0  0  0  0  0  0  0  0  0
    7.2060   27.7659   40.9855 C   0  0  0  0  0  0  0  0  0  0  0  0
    8.2834   27.9770   40.1205 C   0  0  0  0  0  0  0  0  0  0  0  0
    8.0565   28.6079   38.8785 C   0  0  0  0  0  0  0  0  0  0  0  0
    6.8139   29.1678   38.5703 C   0  0  0  0  0  0  0  0  0  0  0  0
    5.7863   29.0400   39.5023 C   0  0  0  0  0  0  0  0  0  0  0  0
    9.0804   28.7623   37.9745 O   0  0  0  0  0  0  0  0  0  0  0  0
    9.7510   28.0837   38.1631 H   0  0  0  0  0  0  0  0  0  0  0  0
    9.6255   27.8894   40.6981 C   0  0  0  0  0  0  0  0  0  0  0  0
   10.6800   27.1057   40.2236 C   0  0  0  0  0  0  0  0  0  0  0  0
   11.9007   27.0649   40.9185 C   0  0  0  0  0  0  0  0  0  0  0  0
   12.0750   27.8779   42.0483 C   0  0  0  0  0  0  0  0  0  0  0  0
   11.0354   28.6917   42.5216 C   0  0  0  0  0  0  0  0  0  0  0  0
    9.8065   28.6197   41.8845 C   0  0  0  0  0  0  0  0  0  0  0  0
   10.5445   26.3445   39.0906 O   0  0  0  0  0  0  0  0  0  0  0  0
    9.6653   26.4930   38.7072 H   0  0  0  0  0  0  0  0  0  0  0  0
   12.8578   26.2190   40.4185 O   0  0  0  0  0  0  0  0  0  0  0  0
   13.7645   25.6426   41.3486 C   0  0  0  0  0  0  0  0  0  0  0  0
   11.2223   29.5853   43.7139 C   0  0  0  0  0  0  0  0  0  0  0  0
   12.6445   30.0444   44.1053 C   0  0  0  0  0  0  0  0  0  0  0  0
   13.3570   31.3156   43.6033 C   0  0  0  0  0  0  0  0  0  0  0  0
   13.6602   32.0887   44.8893 C   0  0  0  0  0  0  0  0  0  0  0  0
   13.4732   31.2118   45.9906 O   0  0  0  0  0  0  0  0  0  0  0  0
   12.7951   30.1048   45.6061 C   0  0  0  0  0  0  0  0  0  0  0  0
   12.4057   29.2511   46.3881 O   0  0  0  0  0  0  0  0  0  0  0  0
   12.7857   32.3075   42.5760 C   0  0  0  0  0  0  0  0  0  0  0  0
   12.1597   31.8484   41.2869 C   0  0  0  0  0  0  0  0  0  0  0  0
   12.9798   31.2062   40.3431 C   0  0  0  0  0  0  0  0  0  0  0  0
   12.5252   30.8730   39.0556 C   0  0  0  0  0  0  0  0  0  0  0  0
   11.2175   31.2180   38.6832 C   0  0  0  0  0  0  0  0  0  0  0  0
   10.3924   31.8319   39.6353 C   0  0  0  0  0  0  0  0  0  0  0  0
   10.8457   32.1045   40.9283 C   0  0  0  0  0  0  0  0  0  0  0  0
   10.7891   30.9199   37.4180 O   0  0  0  0  0  0  0  0  0  0  0  0
   10.9040   31.9269   36.4212 C   0  0  0  0  0  0  0  0  0  0  0  0
   13.4855   30.2242   38.3230 O   0  0  0  0  0  0  0  0  0  0  0  0
   14.3599   30.9907   37.5100 C   0  0  0  0  0  0  0  0  0  0  0  0
    6.7217   29.8636   37.3934 O   0  0  0  0  0  0  0  0  0  0  0  0
    6.6702   31.2820   37.4851 C   0  0  0  0  0  0  0  0  0  0  0  0
    4.8705   28.2862   41.7233 C   0  0  0  0  0  0  0  0  0  0  0  0
    4.0800   26.2972   43.1266 C   0  0  0  0  0  0  0  0  0  0  0  0
    2.6903   25.7389   43.3517 C   0  0  0  0  0  0  0  0  0  0  0  0
    1.8055   26.4595   42.5025 O   0  0  0  0  0  0  0  0  0  0  0  0
    2.4945   27.2169   41.6024 C   0  0  0  0  0  0  0  0  0  0  0  0
    1.9311   27.8847   40.7575 O   0  0  0  0  0  0  0  0  0  0  0  0
    3.9854   27.0427   41.7882 C   0  0  0  0  0  0  0  0  0  0  0  0
    4.6569   27.0187   44.3721 C   0  0  0  0  0  0  0  0  0  0  0  0
    8.3935   25.7406   46.2135 C   0  0  0  0  0  0  0  0  0  0  0  0
    8.0314   25.3151   44.9303 C   0  0  0  0  0  0  0  0  0  0  0  0
    6.8135   25.7530   44.3795 C   0  0  0  0  0  0  0  0  0  0  0  0
    5.9226   26.5833   45.0842 C   0  0  0  0  0  0  0  0  0  0  0  0
    6.3000   26.9712   46.3677 C   0  0  0  0  0  0  0  0  0  0  0  0
    7.5281   26.5859   46.9112 C   0  0  0  0  0  0  0  0  0  0  0  0
    9.5610   24.3926   47.7467 C   0  0  0  0  0  0  0  0  0  0  0  0
    9.6126   25.3965   46.7349 O   0  0  0  0  0  0  0  0  0  0  0  0
    8.7384   24.5018   44.0832 O   0  0  0  0  0  0  0  0  0  0  0  0
    9.6750   25.1228   43.2132 C   0  0  0  0  0  0  0  0  0  0  0  0
 53 54  1  0  0  0
 54 47  1  0  0  0
 47 48  2  0  0  0
 48 49  1  0  0  0
 49 50  2  0  0  0
 50 51  1  0  0  0
 51 52  2  0  0  0
 47 52  1  0  0  0
 50 46  1  0  0  0
 46 40  1  0  0  0
 40 41  1  0  0  0
 41 42  1  0  0  0
 42 43  1  0  0  0
 43 44  2  0  0  0
 43 45  1  0  0  0
 40 45  1  0  0  0
 45 39  1  0  0  0
 39  1  1  0  0  0
  1  2  2  0  0  0
  2  3  1  0  0  0
  3  4  2  0  0  0
  4  5  1  0  0  0
  5  6  2  0  0  0
  1  6  1  0  0  0
  5 37  1  0  0  0
 37 38  1  0  0  0
  4  7  1  0  0  0
  3  9  1  0  0  0
  9 10  2  0  0  0
 10 11  1  0  0  0
 11 12  2  0  0  0
 12 13  1  0  0  0
 13 14  2  0  0  0
  9 14  1  0  0  0
 13 19  1  0  0  0
 19 20  1  0  0  0
 20 21  1  0  0  0
 21 22  1  0  0  0
 22 23  1  0  0  0
 23 24  1  0  0  0
 20 24  1  0  0  0
 24 25  2  0  0  0
 21 26  1  0  0  0
 26 27  1  0  0  0
 27 28  2  0  0  0
 28 29  1  0  0  0
 29 30  2  0  0  0
 30 31  1  0  0  0
 31 32  2  0  0  0
 27 32  1  0  0  0
 30 33  1  0  0  0
 33 34  1  0  0  0
 29 35  1  0  0  0
 35 36  1  0  0  0
 11 17  1  0  0  0
 17 18  1  0  0  0
 10 15  1  0  0  0
 48 55  1  0  0  0
 55 56  1  0  0  0
  7  8  1  0  0  0
 15 16  1  0  0  0
M  END
> <minimizedAffinity>
-9.44674

$$$$
mol_3


 49 55  0  0  0  0  0  0  0  0999 V2000
   13.1235   28.1744   41.9204 C   0  0  0  0  0  0  0  0  0  0  0  0
   12.8131   29.5087   42.4333 N   0  0  0  0  0  0  0  0  0  0  0  0
   14.0328   30.3436   42.3492 C   0  0  0  0  0  0  0  0  0  0  0  0
   13.8098   31.8169   42.0151 C   0  0  0  0  0  0  0  0  0  0  0  0
   12.9923   31.8799   40.7544 C   0  0  0  0  0  0  0  0  0  0  0  0
   13.3429   32.6967   39.6859 C   0  0  0  0  0  0  0  0  0  0  0  0
   12.5957   32.6562   38.5082 C   0  0  0  0  0  0  0  0  0  0  0  0
   11.3882   31.9137   38.4689 C   0  0  0  0  0  0  0  0  0  0  0  0
   10.9379   31.1858   39.6059 C   0  0  0  0  0  0  0  0  0  0  0  0
   11.8440   31.0704   40.6870 C   0  0  0  0  0  0  0  0  0  0  0  0
   11.5766   30.1371   41.8645 C   0  0  0  0  0  0  0  0  0  0  0  0
   10.4625   29.1216   41.5000 C   0  0  0  0  0  0  0  0  0  0  0  0
    9.2506   29.7913   40.8871 C   0  0  0  0  0  0  0  0  0  0  0  0
    7.9072   29.5238   41.2427 C   0  0  0  0  0  0  0  0  0  0  0  0
    6.8627   29.9493   40.4016 C   0  0  0  0  0  0  0  0  0  0  0  0
    7.1263   30.6936   39.2610 C   0  0  0  0  0  0  0  0  0  0  0  0
    8.4455   31.0920   39.0188 C   0  0  0  0  0  0  0  0  0  0  0  0
    9.5377   30.6591   39.7968 C   0  0  0  0  0  0  0  0  0  0  0  0
    5.5726   29.6225   40.7457 O   0  0  0  0  0  0  0  0  0  0  0  0
    5.6291   29.1230   41.5813 H   0  0  0  0  0  0  0  0  0  0  0  0
    6.2273   31.1488   38.3343 O   0  0  0  0  0  0  0  0  0  0  0  0
    6.6470   31.1354   36.9745 C   0  0  0  0  0  0  0  0  0  0  0  0
   10.6699   31.7234   37.3080 O   0  0  0  0  0  0  0  0  0  0  0  0
   11.0552   30.6357   36.4754 C   0  0  0  0  0  0  0  0  0  0  0  0
   12.9777   33.3381   37.3808 O   0  0  0  0  0  0  0  0  0  0  0  0
   14.0637   32.8047   36.6332 C   0  0  0  0  0  0  0  0  0  0  0  0
    7.4297   28.8025   42.3214 O   0  0  0  0  0  0  0  0  0  0  0  0
    7.3546   27.4384   42.3061 C   0  0  0  0  0  0  0  0  0  0  0  0
    7.5900   26.6258   41.2023 C   0  0  0  0  0  0  0  0  0  0  0  0
    7.0618   25.3339   41.2071 C   0  0  0  0  0  0  0  0  0  0  0  0
    6.3930   24.8341   42.3360 C   0  0  0  0  0  0  0  0  0  0  0  0
    6.5148   25.5438   43.5271 C   0  0  0  0  0  0  0  0  0  0  0  0
    6.9469   26.8641   43.5030 C   0  0  0  0  0  0  0  0  0  0  0  0
    5.5114   23.6171   42.1667 C   0  0  0  0  0  0  0  0  0  0  0  0
    4.3478   23.5486   41.1036 C   0  0  0  0  0  0  0  0  0  0  0  0
    3.7959   24.9355   40.7941 C   0  0  0  0  0  0  0  0  0  0  0  0
    3.3159   25.7314   41.8561 C   0  0  0  0  0  0  0  0  0  0  0  0
    2.8903   27.0379   41.6422 C   0  0  0  0  0  0  0  0  0  0  0  0
    2.9221   27.5412   40.3415 C   0  0  0  0  0  0  0  0  0  0  0  0
    3.3410   26.7618   39.2687 C   0  0  0  0  0  0  0  0  0  0  0  0
    3.7751   25.4471   39.4875 C   0  0  0  0  0  0  0  0  0  0  0  0
    4.1331   24.5739   38.3158 C   0  0  0  0  0  0  0  0  0  0  0  0
    4.9018   23.2997   38.6823 C   0  0  0  0  0  0  0  0  0  0  0  0
    4.4528   22.6602   39.9191 N   0  0  0  0  0  0  0  0  0  0  0  0
    5.2087   21.4391   40.1665 C   0  0  0  0  0  0  0  0  0  0  0  0
    2.5242   28.8269   40.0939 O   0  0  0  0  0  0  0  0  0  0  0  0
    2.2780   29.1830   40.9697 H   0  0  0  0  0  0  0  0  0  0  0  0
    2.4349   27.9005   42.6057 O   0  0  0  0  0  0  0  0  0  0  0  0
    3.4235   28.4738   43.4570 C   0  0  0  0  0  0  0  0  0  0  0  0
  1  2  1  0  0  0
  2  3  1  0  0  0
  3  4  1  0  0  0
  4  5  1  0  0  0
  5  6  2  0  0  0
  6  7  1  0  0  0
  7  8  2  0  0  0
  8  9  1  0  0  0
  9 10  2  0  0  0
  5 10  1  0  0  0
 10 11  1  0  0  0
  2 11  1  0  0  0
 11 12  1  0  0  0
 12 13  1  0  0  0
 13 14  2  0  0  0
 14 15  1  0  0  0
 15 16  2  0  0  0
 16 17  1  0  0  0
 17 18  2  0  0  0
 13 18  1  0  0  0
  9 18  1  0  0  0
 16 21  1  0  0  0
 21 22  1  0  0  0
 15 19  1  0  0  0
 14 27  1  0  0  0
 27 28  1  0  0  0
 28 29  2  0  0  0
 29 30  1  0  0  0
 30 31  2  0  0  0
 31 32  1  0  0  0
 32 33  2  0  0  0
 28 33  1  0  0  0
 31 34  1  0  0  0
 34 35  1  0  0  0
 35 36  1  0  0  0
 36 37  2  0  0  0
 37 38  1  0  0  0
 38 39  2  0  0  0
 39 40  1  0  0  0
 40 41  2  0  0  0
 36 41  1  0  0  0
 41 42  1  0  0  0
 42 43  1  0  0  0
 43 44  1  0  0  0
 35 44  1  0  0  0
 44 45  1  0  0  0
 39 46  1  0  0  0
 38 48  1  0  0  0
 48 49  1  0  0  0
  8 23  1  0  0  0
 23 24  1  0  0  0
  7 25  1  0  0  0
 25 26  1  0  0  0
 19 20  1  0  0  0
 46 47  1  0  0  0
M  END
> <minimizedAffinity>
-9.98639

$$$$
mol_4


 39 41  0  0  0  0  0  0  0  0999 V2000
   15.4782   30.6893   36.6152 O   0  0  0  0  0  0  0  0  0  0  0  0
   15.8717   29.7302   35.2632 P   0  0  0  0  0  0  0  0  0  0  0  0
   16.3683   28.3738   35.7770 O   0  0  0  0  0  0  0  0  0  0  0  0
   17.5463   30.3233   35.3740 N   0  0  0  0  0  0  0  0  0  0  0  0
   17.9706   30.3434   36.2949 H   0  0  0  0  0  0  0  0  0  0  0  0
   18.3986   30.0939   34.2090 C   0  0  0  0  0  0  0  0  0  0  0  0
   19.8728   30.3120   34.5143 C   0  0  0  0  0  0  0  0  0  0  0  0
   17.9784   30.9795   33.0350 C   0  0  0  0  0  0  0  0  0  0  0  0
   17.4397   32.0742   33.1312 O   0  0  0  0  0  0  0  0  0  0  0  0
   18.3243   30.3678   31.8637 O   0  0  0  0  0  0  0  0  0  0  0  0
   16.5349   29.5112   30.5457 C   0  0  0  0  0  0  0  0  0  0  0  0
   17.6368   29.1452   31.5361 C   0  0  0  0  0  0  0  0  0  0  0  0
   18.6006   28.1456   30.9069 C   0  0  0  0  0  0  0  0  0  0  0  0
   14.2441   29.1538   35.1555 O   0  0  0  0  0  0  0  0  0  0  0  0
   13.5804   29.3072   33.9644 C   0  0  0  0  0  0  0  0  0  0  0  0
   13.9390   30.2702   33.0225 C   0  0  0  0  0  0  0  0  0  0  0  0
   13.1544   30.4407   31.8802 C   0  0  0  0  0  0  0  0  0  0  0  0
   12.0297   29.6402   31.6767 C   0  0  0  0  0  0  0  0  0  0  0  0
   11.6968   28.6545   32.6057 C   0  0  0  0  0  0  0  0  0  0  0  0
   12.4781   28.4826   33.7480 C   0  0  0  0  0  0  0  0  0  0  0  0
   14.3491   31.5750   36.5392 C   0  0  0  0  0  0  0  0  0  0  0  0
   13.5887   31.8787   37.8369 C   0  0  0  0  0  0  0  0  0  0  0  0
   12.7197   30.6685   38.2292 C   0  0  0  0  0  0  0  0  0  0  0  0
   12.5633   30.8434   39.7265 C   0  0  0  0  0  0  0  0  0  0  0  0
   13.9618   31.3521   40.1121 C   0  0  0  0  0  0  0  0  0  0  0  0
   14.4974   32.0681   38.9609 O   0  0  0  0  0  0  0  0  0  0  0  0
   12.1128   29.5955   40.4682 C   0  0  0  0  0  0  0  0  0  0  0  0
   11.6270   31.8183   39.9319 F   0  0  0  0  0  0  0  0  0  0  0  0
   13.3259   29.4071   37.9138 O   0  0  0  0  0  0  0  0  0  0  0  0
   14.2513   29.3887   38.2191 H   0  0  0  0  0  0  0  0  0  0  0  0
   13.9944   32.1945   41.3082 N   0  0  0  0  0  0  0  0  0  0  0  0
   13.6676   33.5337   41.2287 C   0  0  0  0  0  0  0  0  0  0  0  0
   13.6440   34.3240   42.3041 C   0  0  0  0  0  0  0  0  0  0  0  0
   13.9877   33.7509   43.6122 C   0  0  0  0  0  0  0  0  0  0  0  0
   14.0058   34.4462   44.6248 O   0  0  0  0  0  0  0  0  0  0  0  0
   14.2737   32.4185   43.6197 N   0  0  0  0  0  0  0  0  0  0  0  0
   14.2761   31.5883   42.5269 C   0  0  0  0  0  0  0  0  0  0  0  0
   14.5083   30.3891   42.6596 O   0  0  0  0  0  0  0  0  0  0  0  0
   14.4948   32.0028   44.5112 H   0  0  0  0  0  0  0  0  0  0  0  0
 11 12  1  0  0  0
 12 13  1  0  0  0
 12 10  1  0  0  0
 10  8  1  0  0  0
  8  9  2  0  0  0
  8  6  1  0  0  0
  6  7  1  0  0  0
  6  4  1  0  0  0
  4  2  1  0  0  0
  2  3  2  0  0  0
  2  1  1  0  0  0
  1 21  1  0  0  0
 21 22  1  0  0  0
 22 23  1  0  0  0
 23 24  1  0  0  0
 24 25  1  0  0  0
 25 26  1  0  0  0
 22 26  1  0  0  0
 25 31  1  0  0  0
 31 32  1  0  0  0
 32 33  2  0  0  0
 33 34  1  0  0  0
 34 35  2  0  0  0
 34 36  1  0  0  0
 36 37  1  0  0  0
 31 37  1  0  0  0
 37 38  2  0  0  0
 24 27  1  0  0  0
 24 28  1  0  0  0
 23 29  1  0  0  0
  2 14  1  0  0  0
 14 15  1  0  0  0
 15 16  2  0  0  0
 16 17  1  0  0  0
 17 18  2  0  0  0
 18 19  1  0  0  0
 19 20  2  0  0  0
 15 20  1  0  0  0
  4  5  1  0  0  0
 36 39  1  0  0  0
 29 30  1  0  0  0
M  END
> <minimizedAffinity>
-8.64276

$$$$
